MODEL 1
REMARK minimizedAffinity -7.64030266
REMARK minimizedRMSD -1
REMARK  Name = 
REMARK  6 active torsions:
REMARK  status: ('A' for Active; 'I' for Inactive)
REMARK    1  A    between atoms: C_6  and  C_7
REMARK    2  A    between atoms: C_7  and  N_8
REMARK    3  A    between atoms: N_8  and  C_9
REMARK    4  A    between atoms: C_12  and  S_15
REMARK    5  A    between atoms: S_15  and  N_18
REMARK    6  A    between atoms: N_18  and  C_19
REMARK                            x       y       z     vdW  Elec       q    Type
REMARK                         _______ _______ _______ _____ _____    ______ ____
ROOT
ATOM      1  C   UNL     1     -12.923   6.833  31.181  0.00  0.00    +0.000 A 
ATOM      2  C   UNL     1     -14.228   6.900  31.641  0.00  0.00    +0.000 A 
ATOM      3  C   UNL     1     -14.720   8.061  32.199  0.00  0.00    +0.000 A 
ATOM      4  C   UNL     1     -13.936   9.167  32.404  0.00  0.00    +0.000 A 
ATOM      5  C   UNL     1     -12.692   9.200  31.768  0.00  0.00    +0.000 A 
ATOM      6  C   UNL     1     -12.162   8.008  31.219  0.00  0.00    +0.000 A 
ENDROOT
BRANCH   4   7
ATOM      7  S   UNL     1     -14.469  10.440  33.528  0.00  0.00    +0.000 S 
ATOM      8  O   UNL     1     -15.428  11.259  32.807  0.00  0.00    +0.000 OA
ATOM      9  O   UNL     1     -14.903   9.744  34.724  0.00  0.00    +0.000 OA
BRANCH   7  10
ATOM     10  N   UNL     1     -13.246  11.544  34.008  0.00  0.00    +0.000 N 
ATOM     11  H   UNL     1     -13.198  12.295  33.324  0.00  0.00    +0.000 HD
BRANCH  10  12
ATOM     12  C   UNL     1     -12.980  11.958  35.346  0.00  0.00    +0.000 A 
ATOM     13  C   UNL     1     -13.776  12.889  36.008  0.00  0.00    +0.000 A 
ATOM     14  C   UNL     1     -13.696  12.973  37.407  0.00  0.00    +0.000 A 
ATOM     15  C   UNL     1     -12.721  12.251  38.084  0.00  0.00    +0.000 A 
ATOM     16  C   UNL     1     -11.876  11.459  37.325  0.00  0.00    +0.000 A 
ATOM     17  N   UNL     1     -11.993  11.292  35.978  0.00  0.00    +0.000 NA
ENDBRANCH  10  12
ENDBRANCH   7  10
ENDBRANCH   4   7
BRANCH   1  18
ATOM     18  N   UNL     1     -12.461   5.629  30.646  0.00  0.00    +0.000 N 
ATOM     19  H   UNL     1     -11.572   5.303  30.998  0.00  0.00    +0.000 HD
BRANCH  18  20
ATOM     20  C   UNL     1     -12.625   5.481  29.211  0.00  0.00    +0.000 C 
BRANCH  20  26
ATOM     21  O   UNL     1      -9.572   5.529  29.721  0.00  0.00    +0.000 OA
ATOM     22  C   UNL     1     -10.383   5.658  28.853  0.00  0.00    +0.000 C 
ATOM     23  N   UNL     1     -10.520   6.474  27.700  0.00  0.00    +0.000 NA
ATOM     24  C   UNL     1     -11.011   5.633  26.825  0.00  0.00    +0.000 A 
ATOM     25  C   UNL     1     -10.991   4.280  27.438  0.00  0.00    +0.000 A 
ATOM     26  C   UNL     1     -11.434   4.653  28.671  0.00  0.00    +0.000 C 
ATOM     27  C   UNL     1      -9.610   3.864  27.011  0.00  0.00    +0.000 A 
ATOM     28  S   UNL     1      -8.213   3.489  27.955  0.00  0.00    +0.000 S 
ATOM     29  C   UNL     1      -7.247   3.464  26.527  0.00  0.00    +0.000 A 
ATOM     30  N   UNL     1      -7.828   3.871  25.417  0.00  0.00    +0.000 NA
ATOM     31  C   UNL     1      -9.125   4.181  25.730  0.00  0.00    +0.000 A 
ATOM     32  C   UNL     1     -10.002   4.870  24.825  0.00  0.00    +0.000 A 
ATOM     33  C   UNL     1     -11.049   5.572  25.324  0.00  0.00    +0.000 A 
ENDBRANCH  20  26
ENDBRANCH  18  20
ENDBRANCH   1  18
TORSDOF 6
ENDMDL
MODEL 2
REMARK minimizedAffinity -7.55451632
REMARK minimizedRMSD -1
REMARK  Name = 
REMARK  6 active torsions:
REMARK  status: ('A' for Active; 'I' for Inactive)
REMARK    1  A    between atoms: C_6  and  C_7
REMARK    2  A    between atoms: C_7  and  N_8
REMARK    3  A    between atoms: N_8  and  C_9
REMARK    4  A    between atoms: C_12  and  S_15
REMARK    5  A    between atoms: S_15  and  N_18
REMARK    6  A    between atoms: N_18  and  C_19
REMARK                            x       y       z     vdW  Elec       q    Type
REMARK                         _______ _______ _______ _____ _____    ______ ____
ROOT
ATOM      1  C   UNL     1     -16.447  22.906  43.943  0.00  0.00    +0.000 A 
ATOM      2  C   UNL     1     -16.658  23.772  42.884  0.00  0.00    +0.000 A 
ATOM      3  C   UNL     1     -17.252  23.332  41.720  0.00  0.00    +0.000 A 
ATOM      4  C   UNL     1     -17.584  22.017  41.517  0.00  0.00    +0.000 A 
ATOM      5  C   UNL     1     -17.576  21.173  42.631  0.00  0.00    +0.000 A 
ATOM      6  C   UNL     1     -16.941  21.601  43.821  0.00  0.00    +0.000 A 
ENDROOT
BRANCH   4   7
ATOM      7  S   UNL     1     -17.901  21.423  39.869  0.00  0.00    +0.000 S 
ATOM      8  O   UNL     1     -19.063  20.556  39.955  0.00  0.00    +0.000 OA
ATOM      9  O   UNL     1     -17.972  22.608  39.037  0.00  0.00    +0.000 OA
BRANCH   7  10
ATOM     10  N   UNL     1     -16.673  20.422  39.209  0.00  0.00    +0.000 N 
ATOM     11  H   UNL     1     -15.837  20.983  39.065  0.00  0.00    +0.000 HD
BRANCH  10  12
ATOM     12  C   UNL     1     -16.410  19.074  39.587  0.00  0.00    +0.000 A 
ATOM     13  C   UNL     1     -15.585  18.750  40.661  0.00  0.00    +0.000 A 
ATOM     14  C   UNL     1     -15.662  17.459  41.206  0.00  0.00    +0.000 A 
ATOM     15  C   UNL     1     -16.429  16.489  40.572  0.00  0.00    +0.000 A 
ATOM     16  C   UNL     1     -17.104  16.865  39.423  0.00  0.00    +0.000 A 
ATOM     17  N   UNL     1     -17.116  18.134  38.927  0.00  0.00    +0.000 NA
ENDBRANCH  10  12
ENDBRANCH   7  10
ENDBRANCH   4   7
BRANCH   1  18
ATOM     18  N   UNL     1     -15.819  23.390  45.093  0.00  0.00    +0.000 N 
ATOM     19  H   UNL     1     -16.129  24.295  45.415  0.00  0.00    +0.000 HD
BRANCH  18  20
ATOM     20  C   UNL     1     -14.381  23.197  45.146  0.00  0.00    +0.000 C 
BRANCH  20  26
ATOM     21  O   UNL     1     -12.356  22.471  47.372  0.00  0.00    +0.000 OA
ATOM     22  C   UNL     1     -12.686  22.168  46.264  0.00  0.00    +0.000 C 
ATOM     23  N   UNL     1     -12.021  21.738  45.086  0.00  0.00    +0.000 NA
ATOM     24  C   UNL     1     -12.834  20.817  44.633  0.00  0.00    +0.000 A 
ATOM     25  C   UNL     1     -13.886  20.599  45.658  0.00  0.00    +0.000 A 
ATOM     26  C   UNL     1     -14.095  21.911  45.959  0.00  0.00    +0.000 C 
ATOM     27  C   UNL     1     -13.191  19.539  46.468  0.00  0.00    +0.000 A 
ATOM     28  S   UNL     1     -12.655  19.557  48.109  0.00  0.00    +0.000 S 
ATOM     29  C   UNL     1     -11.812  18.074  47.857  0.00  0.00    +0.000 A 
ATOM     30  N   UNL     1     -11.750  17.637  46.616  0.00  0.00    +0.000 NA
ATOM     31  C   UNL     1     -12.448  18.523  45.840  0.00  0.00    +0.000 A 
ATOM     32  C   UNL     1     -12.413  18.499  44.404  0.00  0.00    +0.000 A 
ATOM     33  C   UNL     1     -12.686  19.635  43.717  0.00  0.00    +0.000 A 
ENDBRANCH  20  26
ENDBRANCH  18  20
ENDBRANCH   1  18
TORSDOF 6
ENDMDL
MODEL 3
REMARK minimizedAffinity -7.48406506
REMARK minimizedRMSD -1
REMARK  Name = 
REMARK  6 active torsions:
REMARK  status: ('A' for Active; 'I' for Inactive)
REMARK    1  A    between atoms: C_6  and  C_7
REMARK    2  A    between atoms: C_7  and  N_8
REMARK    3  A    between atoms: N_8  and  C_9
REMARK    4  A    between atoms: C_12  and  S_15
REMARK    5  A    between atoms: S_15  and  N_18
REMARK    6  A    between atoms: N_18  and  C_19
REMARK                            x       y       z     vdW  Elec       q    Type
REMARK                         _______ _______ _______ _____ _____    ______ ____
ROOT
ATOM      1  C   UNL     1     -14.329   8.339  32.353  0.00  0.00    +0.000 A 
ATOM      2  C   UNL     1     -13.261   9.109  31.927  0.00  0.00    +0.000 A 
ATOM      3  C   UNL     1     -12.279   8.570  31.123  0.00  0.00    +0.000 A 
ATOM      4  C   UNL     1     -12.259   7.242  30.778  0.00  0.00    +0.000 A 
ATOM      5  C   UNL     1     -13.419   6.500  31.017  0.00  0.00    +0.000 A 
ATOM      6  C   UNL     1     -14.421   7.030  31.865  0.00  0.00    +0.000 A 
ENDROOT
BRANCH   4   7
ATOM      7  S   UNL     1     -10.764   6.506  30.155  0.00  0.00    +0.000 S 
ATOM      8  O   UNL     1      -9.661   7.295  30.676  0.00  0.00    +0.000 OA
ATOM      9  O   UNL     1     -10.847   5.102  30.508  0.00  0.00    +0.000 OA
BRANCH   7  10
ATOM     10  N   UNL     1     -10.571   6.582  28.451  0.00  0.00    +0.000 N 
ATOM     11  H   UNL     1      -9.578   6.641  28.238  0.00  0.00    +0.000 HD
BRANCH  10  12
ATOM     12  C   UNL     1     -11.328   5.843  27.497  0.00  0.00    +0.000 A 
ATOM     13  C   UNL     1     -12.596   5.342  27.781  0.00  0.00    +0.000 A 
ATOM     14  C   UNL     1     -13.426   4.962  26.714  0.00  0.00    +0.000 A 
ATOM     15  C   UNL     1     -12.917   4.938  25.422  0.00  0.00    +0.000 A 
ATOM     16  C   UNL     1     -11.597   5.317  25.253  0.00  0.00    +0.000 A 
ATOM     17  N   UNL     1     -10.800   5.774  26.259  0.00  0.00    +0.000 NA
ENDBRANCH  10  12
ENDBRANCH   7  10
ENDBRANCH   4   7
BRANCH   1  18
ATOM     18  N   UNL     1     -15.287   8.922  33.185  0.00  0.00    +0.000 N 
ATOM     19  H   UNL     1     -16.234   8.592  33.066  0.00  0.00    +0.000 HD
BRANCH  18  20
ATOM     20  C   UNL     1     -15.173  10.359  33.355  0.00  0.00    +0.000 C 
BRANCH  20  26
ATOM     21  O   UNL     1     -16.598  12.476  35.108  0.00  0.00    +0.000 OA
ATOM     22  C   UNL     1     -15.511  12.094  34.791  0.00  0.00    +0.000 C 
ATOM     23  N   UNL     1     -14.255  12.700  34.530  0.00  0.00    +0.000 NA
ATOM     24  C   UNL     1     -13.423  11.858  35.090  0.00  0.00    +0.000 A 
ATOM     25  C   UNL     1     -14.226  10.851  35.829  0.00  0.00    +0.000 A 
ATOM     26  C   UNL     1     -15.178  10.669  34.872  0.00  0.00    +0.000 C 
ATOM     27  C   UNL     1     -14.329  11.572  37.145  0.00  0.00    +0.000 A 
ATOM     28  S   UNL     1     -15.711  12.183  37.981  0.00  0.00    +0.000 S 
ATOM     29  C   UNL     1     -14.683  12.999  39.099  0.00  0.00    +0.000 A 
ATOM     30  N   UNL     1     -13.396  12.999  38.820  0.00  0.00    +0.000 NA
ATOM     31  C   UNL     1     -13.230  12.275  37.670  0.00  0.00    +0.000 A 
ATOM     32  C   UNL     1     -11.995  12.245  36.938  0.00  0.00    +0.000 A 
ATOM     33  C   UNL     1     -12.017  11.952  35.614  0.00  0.00    +0.000 A 
ENDBRANCH  20  26
ENDBRANCH  18  20
ENDBRANCH   1  18
TORSDOF 6
ENDMDL
MODEL 4
REMARK minimizedAffinity -7.48315907
REMARK minimizedRMSD -1
REMARK  Name = 
REMARK  6 active torsions:
REMARK  status: ('A' for Active; 'I' for Inactive)
REMARK    1  A    between atoms: C_6  and  C_7
REMARK    2  A    between atoms: C_7  and  N_8
REMARK    3  A    between atoms: N_8  and  C_9
REMARK    4  A    between atoms: C_12  and  S_15
REMARK    5  A    between atoms: S_15  and  N_18
REMARK    6  A    between atoms: N_18  and  C_19
REMARK                            x       y       z     vdW  Elec       q    Type
REMARK                         _______ _______ _______ _____ _____    ______ ____
ROOT
ATOM      1  C   UNL     1     -15.942  18.369  41.736  0.00  0.00    +0.000 A 
ATOM      2  C   UNL     1     -17.084  18.833  42.368  0.00  0.00    +0.000 A 
ATOM      3  C   UNL     1     -17.860  19.815  41.790  0.00  0.00    +0.000 A 
ATOM      4  C   UNL     1     -17.506  20.438  40.621  0.00  0.00    +0.000 A 
ATOM      5  C   UNL     1     -16.485  19.854  39.866  0.00  0.00    +0.000 A 
ATOM      6  C   UNL     1     -15.661  18.867  40.458  0.00  0.00    +0.000 A 
ENDROOT
BRANCH   4   7
ATOM      7  S   UNL     1     -18.263  21.985  40.171  0.00  0.00    +0.000 S 
ATOM      8  O   UNL     1     -18.153  22.098  38.727  0.00  0.00    +0.000 OA
ATOM      9  O   UNL     1     -19.582  21.960  40.772  0.00  0.00    +0.000 OA
BRANCH   7  10
ATOM     10  N   UNL     1     -17.468  23.384  40.767  0.00  0.00    +0.000 N 
ATOM     11  H   UNL     1     -17.803  24.194  40.252  0.00  0.00    +0.000 HD
BRANCH  10  12
ATOM     12  C   UNL     1     -17.169  23.648  42.135  0.00  0.00    +0.000 A 
ATOM     13  C   UNL     1     -16.321  22.834  42.882  0.00  0.00    +0.000 A 
ATOM     14  C   UNL     1     -15.779  23.338  44.075  0.00  0.00    +0.000 A 
ATOM     15  C   UNL     1     -16.220  24.560  44.568  0.00  0.00    +0.000 A 
ATOM     16  C   UNL     1     -17.176  25.235  43.829  0.00  0.00    +0.000 A 
ATOM     17  N   UNL     1     -17.650  24.809  42.624  0.00  0.00    +0.000 NA
ENDBRANCH  10  12
ENDBRANCH   7  10
ENDBRANCH   4   7
BRANCH   1  18
ATOM     18  N   UNL     1     -15.174  17.391  42.370  0.00  0.00    +0.000 N 
ATOM     19  H   UNL     1     -15.610  16.929  43.155  0.00  0.00    +0.000 HD
BRANCH  18  20
ATOM     20  C   UNL     1     -13.778  17.732  42.579  0.00  0.00    +0.000 C 
BRANCH  20  26
ATOM     21  O   UNL     1     -11.697  19.994  42.950  0.00  0.00    +0.000 OA
ATOM     22  C   UNL     1     -12.260  19.125  43.548  0.00  0.00    +0.000 C 
ATOM     23  N   UNL     1     -11.918  18.215  44.582  0.00  0.00    +0.000 NA
ATOM     24  C   UNL     1     -13.003  18.215  45.315  0.00  0.00    +0.000 A 
ATOM     25  C   UNL     1     -13.907  19.268  44.788  0.00  0.00    +0.000 A 
ATOM     26  C   UNL     1     -13.717  18.999  43.466  0.00  0.00    +0.000 C 
ATOM     27  C   UNL     1     -13.397  20.426  45.603  0.00  0.00    +0.000 A 
ATOM     28  S   UNL     1     -12.630  21.891  45.108  0.00  0.00    +0.000 S 
ATOM     29  C   UNL     1     -12.252  22.257  46.750  0.00  0.00    +0.000 A 
ATOM     30  N   UNL     1     -12.497  21.311  47.634  0.00  0.00    +0.000 NA
ATOM     31  C   UNL     1     -13.050  20.258  46.956  0.00  0.00    +0.000 A 
ATOM     32  C   UNL     1     -13.242  18.963  47.548  0.00  0.00    +0.000 A 
ATOM     33  C   UNL     1     -13.310  17.872  46.746  0.00  0.00    +0.000 A 
ENDBRANCH  20  26
ENDBRANCH  18  20
ENDBRANCH   1  18
TORSDOF 6
ENDMDL
MODEL 5
REMARK minimizedAffinity -7.45237589
REMARK minimizedRMSD -1
REMARK  Name = 
REMARK  6 active torsions:
REMARK  status: ('A' for Active; 'I' for Inactive)
REMARK    1  A    between atoms: C_6  and  C_7
REMARK    2  A    between atoms: C_7  and  N_8
REMARK    3  A    between atoms: N_8  and  C_9
REMARK    4  A    between atoms: C_12  and  S_15
REMARK    5  A    between atoms: S_15  and  N_18
REMARK    6  A    between atoms: N_18  and  C_19
REMARK                            x       y       z     vdW  Elec       q    Type
REMARK                         _______ _______ _______ _____ _____    ______ ____
ROOT
ATOM      1  C   UNL     1     -15.845  17.496  41.079  0.00  0.00    +0.000 A 
ATOM      2  C   UNL     1     -14.853  18.264  40.493  0.00  0.00    +0.000 A 
ATOM      3  C   UNL     1     -13.645  18.460  41.129  0.00  0.00    +0.000 A 
ATOM      4  C   UNL     1     -13.394  17.987  42.391  0.00  0.00    +0.000 A 
ATOM      5  C   UNL     1     -14.286  17.045  42.913  0.00  0.00    +0.000 A 
ATOM      6  C   UNL     1     -15.541  16.857  42.288  0.00  0.00    +0.000 A 
ENDROOT
BRANCH   4   7
ATOM      7  S   UNL     1     -12.040  18.649  43.338  0.00  0.00    +0.000 S 
ATOM      8  O   UNL     1     -11.484  17.544  44.099  0.00  0.00    +0.000 OA
ATOM      9  O   UNL     1     -11.195  19.333  42.378  0.00  0.00    +0.000 OA
BRANCH   7  10
ATOM     10  N   UNL     1     -12.482  19.803  44.528  0.00  0.00    +0.000 N 
ATOM     11  H   UNL     1     -11.764  19.819  45.249  0.00  0.00    +0.000 HD
BRANCH  10  12
ATOM     12  C   UNL     1     -13.075  21.073  44.272  0.00  0.00    +0.000 A 
ATOM     13  C   UNL     1     -14.447  21.229  44.086  0.00  0.00    +0.000 A 
ATOM     14  C   UNL     1     -15.003  22.512  44.211  0.00  0.00    +0.000 A 
ATOM     15  C   UNL     1     -14.167  23.613  44.353  0.00  0.00    +0.000 A 
ATOM     16  C   UNL     1     -12.804  23.375  44.383  0.00  0.00    +0.000 A 
ATOM     17  N   UNL     1     -12.246  22.133  44.354  0.00  0.00    +0.000 NA
ENDBRANCH  10  12
ENDBRANCH   7  10
ENDBRANCH   4   7
BRANCH   1  18
ATOM     18  N   UNL     1     -17.061  17.345  40.410  0.00  0.00    +0.000 N 
ATOM     19  H   UNL     1     -17.108  16.585  39.747  0.00  0.00    +0.000 HD
BRANCH  18  20
ATOM     20  C   UNL     1     -17.676  18.577  39.949  0.00  0.00    +0.000 C 
BRANCH  20  26
ATOM     21  O   UNL     1     -20.591  19.288  40.715  0.00  0.00    +0.000 OA
ATOM     22  C   UNL     1     -19.526  19.786  40.498  0.00  0.00    +0.000 C 
ATOM     23  N   UNL     1     -19.066  20.978  39.880  0.00  0.00    +0.000 NA
ATOM     24  C   UNL     1     -18.089  21.339  40.673  0.00  0.00    +0.000 A 
ATOM     25  C   UNL     1     -18.105  20.435  41.851  0.00  0.00    +0.000 A 
ATOM     26  C   UNL     1     -18.325  19.279  41.167  0.00  0.00    +0.000 C 
ATOM     27  C   UNL     1     -19.051  21.219  42.719  0.00  0.00    +0.000 A 
ATOM     28  S   UNL     1     -20.615  20.808  43.325  0.00  0.00    +0.000 S 
ATOM     29  C   UNL     1     -20.839  22.429  43.867  0.00  0.00    +0.000 A 
ATOM     30  N   UNL     1     -19.927  23.304  43.497  0.00  0.00    +0.000 NA
ATOM     31  C   UNL     1     -18.984  22.623  42.774  0.00  0.00    +0.000 A 
ATOM     32  C   UNL     1     -17.955  23.282  42.017  0.00  0.00    +0.000 A 
ATOM     33  C   UNL     1     -17.391  22.637  40.967  0.00  0.00    +0.000 A 
ENDBRANCH  20  26
ENDBRANCH  18  20
ENDBRANCH   1  18
TORSDOF 6
ENDMDL
MODEL 6
REMARK minimizedAffinity -7.43957853
REMARK minimizedRMSD -1
REMARK  Name = 
REMARK  6 active torsions:
REMARK  status: ('A' for Active; 'I' for Inactive)
REMARK    1  A    between atoms: C_6  and  C_7
REMARK    2  A    between atoms: C_7  and  N_8
REMARK    3  A    between atoms: N_8  and  C_9
REMARK    4  A    between atoms: C_12  and  S_15
REMARK    5  A    between atoms: S_15  and  N_18
REMARK    6  A    between atoms: N_18  and  C_19
REMARK                            x       y       z     vdW  Elec       q    Type
REMARK                         _______ _______ _______ _____ _____    ______ ____
ROOT
ATOM      1  C   UNL     1     -18.201  23.763  43.394  0.00  0.00    +0.000 A 
ATOM      2  C   UNL     1     -17.321  23.920  42.336  0.00  0.00    +0.000 A 
ATOM      3  C   UNL     1     -17.341  23.049  41.267  0.00  0.00    +0.000 A 
ATOM      4  C   UNL     1     -18.159  21.949  41.231  0.00  0.00    +0.000 A 
ATOM      5  C   UNL     1     -19.190  21.884  42.173  0.00  0.00    +0.000 A 
ATOM      6  C   UNL     1     -19.164  22.751  43.291  0.00  0.00    +0.000 A 
ENDROOT
BRANCH   4   7
ATOM      7  S   UNL     1     -17.825  20.628  40.086  0.00  0.00    +0.000 S 
ATOM      8  O   UNL     1     -19.108  20.042  39.738  0.00  0.00    +0.000 OA
ATOM      9  O   UNL     1     -17.018  21.219  39.037  0.00  0.00    +0.000 OA
BRANCH   7  10
ATOM     10  N   UNL     1     -16.923  19.318  40.732  0.00  0.00    +0.000 N 
ATOM     11  H   UNL     1     -16.923  18.558  40.057  0.00  0.00    +0.000 HD
BRANCH  10  12
ATOM     12  C   UNL     1     -15.715  19.432  41.480  0.00  0.00    +0.000 A 
ATOM     13  C   UNL     1     -15.677  20.002  42.750  0.00  0.00    +0.000 A 
ATOM     14  C   UNL     1     -14.566  19.752  43.569  0.00  0.00    +0.000 A 
ATOM     15  C   UNL     1     -13.464  19.085  43.049  0.00  0.00    +0.000 A 
ATOM     16  C   UNL     1     -13.534  18.679  41.727  0.00  0.00    +0.000 A 
ATOM     17  N   UNL     1     -14.636  18.831  40.940  0.00  0.00    +0.000 NA
ENDBRANCH  10  12
ENDBRANCH   7  10
ENDBRANCH   4   7
BRANCH   1  18
ATOM     18  N   UNL     1     -18.128  24.654  44.466  0.00  0.00    +0.000 N 
ATOM     19  H   UNL     1     -18.803  25.404  44.462  0.00  0.00    +0.000 HD
BRANCH  18  20
ATOM     20  C   UNL     1     -16.787  25.060  44.848  0.00  0.00    +0.000 C 
BRANCH  20  26
ATOM     21  O   UNL     1     -15.651  24.848  47.721  0.00  0.00    +0.000 OA
ATOM     22  C   UNL     1     -15.338  24.730  46.573  0.00  0.00    +0.000 C 
ATOM     23  N   UNL     1     -14.181  25.008  45.800  0.00  0.00    +0.000 NA
ATOM     24  C   UNL     1     -14.122  23.967  45.009  0.00  0.00    +0.000 A 
ATOM     25  C   UNL     1     -15.159  23.002  45.455  0.00  0.00    +0.000 A 
ATOM     26  C   UNL     1     -16.149  23.912  45.668  0.00  0.00    +0.000 C 
ATOM     27  C   UNL     1     -14.337  22.241  46.459  0.00  0.00    +0.000 A 
ATOM     28  S   UNL     1     -14.526  22.081  48.168  0.00  0.00    +0.000 S 
ATOM     29  C   UNL     1     -12.981  21.323  48.275  0.00  0.00    +0.000 A 
ATOM     30  N   UNL     1     -12.251  21.319  47.178  0.00  0.00    +0.000 NA
ATOM     31  C   UNL     1     -12.992  21.923  46.198  0.00  0.00    +0.000 A 
ATOM     32  C   UNL     1     -12.441  22.303  44.926  0.00  0.00    +0.000 A 
ATOM     33  C   UNL     1     -13.031  23.299  44.221  0.00  0.00    +0.000 A 
ENDBRANCH  20  26
ENDBRANCH  18  20
ENDBRANCH   1  18
TORSDOF 6
ENDMDL
MODEL 7
REMARK minimizedAffinity -7.43066168
REMARK minimizedRMSD -1
REMARK  Name = 
REMARK  6 active torsions:
REMARK  status: ('A' for Active; 'I' for Inactive)
REMARK    1  A    between atoms: C_6  and  C_7
REMARK    2  A    between atoms: C_7  and  N_8
REMARK    3  A    between atoms: N_8  and  C_9
REMARK    4  A    between atoms: C_12  and  S_15
REMARK    5  A    between atoms: S_15  and  N_18
REMARK    6  A    between atoms: N_18  and  C_19
REMARK                            x       y       z     vdW  Elec       q    Type
REMARK                         _______ _______ _______ _____ _____    ______ ____
ROOT
ATOM      1  C   UNL     1     -14.867  19.237  43.229  0.00  0.00    +0.000 A 
ATOM      2  C   UNL     1     -16.143  19.730  43.441  0.00  0.00    +0.000 A 
ATOM      3  C   UNL     1     -16.951  20.077  42.379  0.00  0.00    +0.000 A 
ATOM      4  C   UNL     1     -16.514  20.034  41.079  0.00  0.00    +0.000 A 
ATOM      5  C   UNL     1     -15.321  19.351  40.825  0.00  0.00    +0.000 A 
ATOM      6  C   UNL     1     -14.469  19.018  41.905  0.00  0.00    +0.000 A 
ENDROOT
BRANCH   4   7
ATOM      7  S   UNL     1     -17.399  20.916  39.812  0.00  0.00    +0.000 S 
ATOM      8  O   UNL     1     -16.578  20.863  38.615  0.00  0.00    +0.000 OA
ATOM      9  O   UNL     1     -18.722  20.323  39.780  0.00  0.00    +0.000 OA
BRANCH   7  10
ATOM     10  N   UNL     1     -17.610  22.594  40.107  0.00  0.00    +0.000 N 
ATOM     11  H   UNL     1     -18.056  23.014  39.295  0.00  0.00    +0.000 HD
BRANCH  10  12
ATOM     12  C   UNL     1     -17.997  23.175  41.348  0.00  0.00    +0.000 A 
ATOM     13  C   UNL     1     -19.208  22.873  41.966  0.00  0.00    +0.000 A 
ATOM     14  C   UNL     1     -19.364  23.173  43.328  0.00  0.00    +0.000 A 
ATOM     15  C   UNL     1     -18.385  23.904  43.988  0.00  0.00    +0.000 A 
ATOM     16  C   UNL     1     -17.276  24.288  43.253  0.00  0.00    +0.000 A 
ATOM     17  N   UNL     1     -17.061  23.932  41.956  0.00  0.00    +0.000 NA
ENDBRANCH  10  12
ENDBRANCH   7  10
ENDBRANCH   4   7
BRANCH   1  18
ATOM     18  N   UNL     1     -14.077  18.922  44.336  0.00  0.00    +0.000 N 
ATOM     19  H   UNL     1     -14.571  18.581  45.148  0.00  0.00    +0.000 HD
BRANCH  18  20
ATOM     20  C   UNL     1     -13.019  19.871  44.637  0.00  0.00    +0.000 C 
BRANCH  20  26
ATOM     21  O   UNL     1     -12.233  22.846  44.301  0.00  0.00    +0.000 OA
ATOM     22  C   UNL     1     -12.457  22.020  45.136  0.00  0.00    +0.000 C 
ATOM     23  N   UNL     1     -11.943  21.705  46.420  0.00  0.00    +0.000 NA
ATOM     24  C   UNL     1     -13.029  21.399  47.083  0.00  0.00    +0.000 A 
ATOM     25  C   UNL     1     -14.193  21.712  46.214  0.00  0.00    +0.000 A 
ATOM     26  C   UNL     1     -13.674  21.208  45.060  0.00  0.00    +0.000 C 
ATOM     27  C   UNL     1     -14.391  23.147  46.618  0.00  0.00    +0.000 A 
ATOM     28  S   UNL     1     -14.265  24.598  45.690  0.00  0.00    +0.000 S 
ATOM     29  C   UNL     1     -14.382  25.538  47.131  0.00  0.00    +0.000 A 
ATOM     30  N   UNL     1     -14.342  24.876  48.269  0.00  0.00    +0.000 NA
ATOM     31  C   UNL     1     -14.252  23.545  47.960  0.00  0.00    +0.000 A 
ATOM     32  C   UNL     1     -13.962  22.535  48.939  0.00  0.00    +0.000 A 
ATOM     33  C   UNL     1     -13.406  21.365  48.538  0.00  0.00    +0.000 A 
ENDBRANCH  20  26
ENDBRANCH  18  20
ENDBRANCH   1  18
TORSDOF 6
ENDMDL
MODEL 8
REMARK minimizedAffinity -7.40790844
REMARK minimizedRMSD -1
REMARK  Name = 
REMARK  6 active torsions:
REMARK  status: ('A' for Active; 'I' for Inactive)
REMARK    1  A    between atoms: C_6  and  C_7
REMARK    2  A    between atoms: C_7  and  N_8
REMARK    3  A    between atoms: N_8  and  C_9
REMARK    4  A    between atoms: C_12  and  S_15
REMARK    5  A    between atoms: S_15  and  N_18
REMARK    6  A    between atoms: N_18  and  C_19
REMARK                            x       y       z     vdW  Elec       q    Type
REMARK                         _______ _______ _______ _____ _____    ______ ____
ROOT
ATOM      1  C   UNL     1     -16.338  16.327  39.697  0.00  0.00    +0.000 A 
ATOM      2  C   UNL     1     -16.926  15.303  38.975  0.00  0.00    +0.000 A 
ATOM      3  C   UNL     1     -16.193  14.202  38.587  0.00  0.00    +0.000 A 
ATOM      4  C   UNL     1     -14.844  14.100  38.814  0.00  0.00    +0.000 A 
ATOM      5  C   UNL     1     -14.274  15.008  39.711  0.00  0.00    +0.000 A 
ATOM      6  C   UNL     1     -15.005  16.158  40.093  0.00  0.00    +0.000 A 
ENDROOT
BRANCH   4   7
ATOM      7  S   UNL     1     -13.874  12.918  37.903  0.00  0.00    +0.000 S 
ATOM      8  O   UNL     1     -12.575  12.858  38.550  0.00  0.00    +0.000 OA
ATOM      9  O   UNL     1     -14.683  11.716  37.845  0.00  0.00    +0.000 OA
BRANCH   7  10
ATOM     10  N   UNL     1     -13.521  13.362  36.283  0.00  0.00    +0.000 N 
ATOM     11  H   UNL     1     -12.661  13.906  36.274  0.00  0.00    +0.000 HD
BRANCH  10  12
ATOM     12  C   UNL     1     -13.695  12.531  35.139  0.00  0.00    +0.000 A 
ATOM     13  C   UNL     1     -12.651  11.788  34.594  0.00  0.00    +0.000 A 
ATOM     14  C   UNL     1     -12.959  10.727  33.727  0.00  0.00    +0.000 A 
ATOM     15  C   UNL     1     -14.269  10.542  33.304  0.00  0.00    +0.000 A 
ATOM     16  C   UNL     1     -15.222  11.422  33.787  0.00  0.00    +0.000 A 
ATOM     17  N   UNL     1     -14.963  12.402  34.699  0.00  0.00    +0.000 NA
ENDBRANCH  10  12
ENDBRANCH   7  10
ENDBRANCH   4   7
BRANCH   1  18
ATOM     18  N   UNL     1     -17.113  17.433  40.048  0.00  0.00    +0.000 N 
ATOM     19  H   UNL     1     -18.109  17.274  40.103  0.00  0.00    +0.000 HD
BRANCH  18  20
ATOM     20  C   UNL     1     -16.743  18.682  39.407  0.00  0.00    +0.000 C 
BRANCH  20  26
ATOM     21  O   UNL     1     -17.727  18.911  42.334  0.00  0.00    +0.000 OA
ATOM     22  C   UNL     1     -17.815  19.443  41.267  0.00  0.00    +0.000 C 
ATOM     23  N   UNL     1     -18.838  20.107  40.542  0.00  0.00    +0.000 NA
ATOM     24  C   UNL     1     -18.187  21.108  40.004  0.00  0.00    +0.000 A 
ATOM     25  C   UNL     1     -16.814  21.111  40.570  0.00  0.00    +0.000 A 
ATOM     26  C   UNL     1     -16.607  19.767  40.504  0.00  0.00    +0.000 C 
ATOM     27  C   UNL     1     -17.074  21.973  41.776  0.00  0.00    +0.000 A 
ATOM     28  S   UNL     1     -16.956  21.607  43.459  0.00  0.00    +0.000 S 
ATOM     29  C   UNL     1     -17.718  23.104  43.845  0.00  0.00    +0.000 A 
ATOM     30  N   UNL     1     -18.208  23.793  42.834  0.00  0.00    +0.000 NA
ATOM     31  C   UNL     1     -17.919  23.094  41.692  0.00  0.00    +0.000 A 
ATOM     32  C   UNL     1     -18.488  23.420  40.414  0.00  0.00    +0.000 A 
ATOM     33  C   UNL     1     -18.578  22.455  39.465  0.00  0.00    +0.000 A 
ENDBRANCH  20  26
ENDBRANCH  18  20
ENDBRANCH   1  18
TORSDOF 6
ENDMDL
MODEL 9
REMARK minimizedAffinity -7.34864616
REMARK minimizedRMSD -1
REMARK  Name = 
REMARK  6 active torsions:
REMARK  status: ('A' for Active; 'I' for Inactive)
REMARK    1  A    between atoms: C_6  and  C_7
REMARK    2  A    between atoms: C_7  and  N_8
REMARK    3  A    between atoms: N_8  and  C_9
REMARK    4  A    between atoms: C_12  and  S_15
REMARK    5  A    between atoms: S_15  and  N_18
REMARK    6  A    between atoms: N_18  and  C_19
REMARK                            x       y       z     vdW  Elec       q    Type
REMARK                         _______ _______ _______ _____ _____    ______ ____
ROOT
ATOM      1  C   UNL     1     -12.933   6.483  31.707  0.00  0.00    +0.000 A 
ATOM      2  C   UNL     1     -12.510   7.733  31.288  0.00  0.00    +0.000 A 
ATOM      3  C   UNL     1     -12.603   8.826  32.125  0.00  0.00    +0.000 A 
ATOM      4  C   UNL     1     -13.187   8.755  33.363  0.00  0.00    +0.000 A 
ATOM      5  C   UNL     1     -13.429   7.481  33.887  0.00  0.00    +0.000 A 
ATOM      6  C   UNL     1     -13.368   6.356  33.032  0.00  0.00    +0.000 A 
ENDROOT
BRANCH   4   7
ATOM      7  S   UNL     1     -13.702  10.243  34.192  0.00  0.00    +0.000 S 
ATOM      8  O   UNL     1     -14.388   9.830  35.404  0.00  0.00    +0.000 OA
ATOM      9  O   UNL     1     -12.506  11.055  34.308  0.00  0.00    +0.000 OA
BRANCH   7  10
ATOM     10  N   UNL     1     -14.864  11.182  33.346  0.00  0.00    +0.000 N 
ATOM     11  H   UNL     1     -14.376  11.873  32.782  0.00  0.00    +0.000 HD
BRANCH  10  12
ATOM     12  C   UNL     1     -16.058  10.683  32.751  0.00  0.00    +0.000 A 
ATOM     13  C   UNL     1     -16.058  10.023  31.525  0.00  0.00    +0.000 A 
ATOM     14  C   UNL     1     -17.173   9.243  31.178  0.00  0.00    +0.000 A 
ATOM     15  C   UNL     1     -18.309   9.274  31.977  0.00  0.00    +0.000 A 
ATOM     16  C   UNL     1     -18.269  10.075  33.105  0.00  0.00    +0.000 A 
ATOM     17  N   UNL     1     -17.169  10.769  33.510  0.00  0.00    +0.000 NA
ENDBRANCH  10  12
ENDBRANCH   7  10
ENDBRANCH   4   7
BRANCH   1  18
ATOM     18  N   UNL     1     -12.843   5.411  30.817  0.00  0.00    +0.000 N 
ATOM     19  H   UNL     1     -12.266   4.638  31.115  0.00  0.00    +0.000 HD
BRANCH  18  20
ATOM     20  C   UNL     1     -12.679   5.773  29.420  0.00  0.00    +0.000 C 
BRANCH  20  26
ATOM     21  O   UNL     1      -9.615   5.565  29.814  0.00  0.00    +0.000 OA
ATOM     22  C   UNL     1     -10.445   5.784  28.981  0.00  0.00    +0.000 C 
ATOM     23  N   UNL     1     -10.557   6.642  27.857  0.00  0.00    +0.000 NA
ATOM     24  C   UNL     1     -11.145   5.869  26.979  0.00  0.00    +0.000 A 
ATOM     25  C   UNL     1     -11.211   4.501  27.554  0.00  0.00    +0.000 A 
ATOM     26  C   UNL     1     -11.578   4.870  28.812  0.00  0.00    +0.000 C 
ATOM     27  C   UNL     1      -9.884   3.990  27.064  0.00  0.00    +0.000 A 
ATOM     28  S   UNL     1      -8.488   3.478  27.943  0.00  0.00    +0.000 S 
ATOM     29  C   UNL     1      -7.578   3.421  26.479  0.00  0.00    +0.000 A 
ATOM     30  N   UNL     1      -8.165   3.905  25.403  0.00  0.00    +0.000 NA
ATOM     31  C   UNL     1      -9.421   4.306  25.774  0.00  0.00    +0.000 A 
ATOM     32  C   UNL     1     -10.273   5.088  24.922  0.00  0.00    +0.000 A 
ATOM     33  C   UNL     1     -11.242   5.855  25.479  0.00  0.00    +0.000 A 
ENDBRANCH  20  26
ENDBRANCH  18  20
ENDBRANCH   1  18
TORSDOF 6
ENDMDL
