MODEL 1
REMARK minimizedAffinity -5.16319656
REMARK minimizedRMSD -1
REMARK  Name = 
REMARK  7 active torsions:
REMARK  status: ('A' for Active; 'I' for Inactive)
REMARK    1  A    between atoms: C_1  and  C_2
REMARK    2  A    between atoms: C_2  and  N_3
REMARK    3  A    between atoms: N_3  and  C_4
REMARK    4  A    between atoms: N_7  and  N_8
REMARK    5  A    between atoms: N_13  and  C_14
REMARK    6  A    between atoms: C_14  and  C_15
REMARK    7  A    between atoms: C_14  and  C_16
REMARK                            x       y       z     vdW  Elec       q    Type
REMARK                         _______ _______ _______ _____ _____    ______ ____
ROOT
ATOM      1  C   UNL     1       4.553  28.042  32.378  0.00  0.00    +0.000 A 
ATOM      2  N   UNL     1       3.645  27.819  31.429  0.00  0.00    +0.000 NA
ATOM      3  C   UNL     1       3.175  26.585  31.346  0.00  0.00    +0.000 A 
ATOM      4  N   UNL     1       2.210  26.340  30.390  0.00  0.00    +0.000 N 
ATOM      5  N   UNL     1       3.562  25.586  32.118  0.00  0.00    +0.000 NA
ATOM      6  C   UNL     1       4.475  25.885  33.034  0.00  0.00    +0.000 A 
ATOM      7  N   UNL     1       5.014  27.091  33.194  0.00  0.00    +0.000 NA
ATOM      8  N   UNL     1       4.887  24.885  33.885  0.00  0.00    +0.000 N 
ATOM      9  H   UNL     1       1.917  27.148  29.876  0.00  0.00    +0.000 HD
ATOM     10  H   UNL     1       5.544  25.191  34.585  0.00  0.00    +0.000 HD
ENDROOT
BRANCH   8  11
ATOM     11  C   UNL     1       4.354  23.542  33.807  0.00  0.00    +0.000 C 
ATOM     12  C   UNL     1       5.323  22.649  33.041  0.00  0.00    +0.000 C 
ATOM     13  C   UNL     1       4.127  22.977  35.206  0.00  0.00    +0.000 C 
ENDBRANCH   8  11
BRANCH   4  14
ATOM     14  N   UNL     1       1.675  25.085  30.248  0.00  0.00    +0.000 NA
ATOM     15  N   UNL     1       1.185  24.097  30.079  0.00  0.00    +0.000 NA
ENDBRANCH   4  14
BRANCH   1  16
ATOM     16  N   UNL     1       5.154  29.245  32.457  0.00  0.00    +0.000 NA
BRANCH  16  18
ATOM     17  C   UNL     1       4.350  31.637  32.559  0.00  0.00    +0.000 C 
ATOM     18  C   UNL     1       4.562  30.377  31.725  0.00  0.00    +0.000 C 
ENDBRANCH  16  18
ENDBRANCH   1  16
TORSDOF 4
ENDMDL
MODEL 2
REMARK minimizedAffinity -4.92066336
REMARK minimizedRMSD -1
REMARK  Name = 
REMARK  7 active torsions:
REMARK  status: ('A' for Active; 'I' for Inactive)
REMARK    1  A    between atoms: C_1  and  C_2
REMARK    2  A    between atoms: C_2  and  N_3
REMARK    3  A    between atoms: N_3  and  C_4
REMARK    4  A    between atoms: N_7  and  N_8
REMARK    5  A    between atoms: N_13  and  C_14
REMARK    6  A    between atoms: C_14  and  C_15
REMARK    7  A    between atoms: C_14  and  C_16
REMARK                            x       y       z     vdW  Elec       q    Type
REMARK                         _______ _______ _______ _____ _____    ______ ____
ROOT
ATOM      1  C   UNL     1     -23.445  14.438   7.367  0.00  0.00    +0.000 A 
ATOM      2  N   UNL     1     -24.086  15.148   8.294  0.00  0.00    +0.000 NA
ATOM      3  C   UNL     1     -25.215  14.632   8.750  0.00  0.00    +0.000 A 
ATOM      4  N   UNL     1     -25.880  15.336   9.734  0.00  0.00    +0.000 N 
ATOM      5  N   UNL     1     -25.736  13.493   8.333  0.00  0.00    +0.000 NA
ATOM      6  C   UNL     1     -25.043  12.848   7.402  0.00  0.00    +0.000 A 
ATOM      7  N   UNL     1     -23.903  13.285   6.876  0.00  0.00    +0.000 NA
ATOM      8  N   UNL     1     -25.529  11.639   6.959  0.00  0.00    +0.000 N 
ATOM      9  H   UNL     1     -25.406  16.160  10.049  0.00  0.00    +0.000 HD
ATOM     10  H   UNL     1     -24.931  11.181   6.289  0.00  0.00    +0.000 HD
ENDROOT
BRANCH   8  11
ATOM     11  C   UNL     1     -26.751  11.065   7.476  0.00  0.00    +0.000 C 
ATOM     12  C   UNL     1     -27.890  11.307   6.491  0.00  0.00    +0.000 C 
ATOM     13  C   UNL     1     -26.581   9.567   7.709  0.00  0.00    +0.000 C 
ENDBRANCH   8  11
BRANCH   4  14
ATOM     14  N   UNL     1     -27.054  14.860  10.256  0.00  0.00    +0.000 NA
ATOM     15  N   UNL     1     -28.027  14.549  10.709  0.00  0.00    +0.000 NA
ENDBRANCH   4  14
BRANCH   1  16
ATOM     16  N   UNL     1     -22.345  14.948   6.779  0.00  0.00    +0.000 NA
BRANCH  16  18
ATOM     17  C   UNL     1     -23.151  16.534   4.987  0.00  0.00    +0.000 C 
ATOM     18  C   UNL     1     -22.394  15.258   5.341  0.00  0.00    +0.000 C 
ENDBRANCH  16  18
ENDBRANCH   1  16
TORSDOF 4
ENDMDL
MODEL 3
REMARK minimizedAffinity -4.77859974
REMARK minimizedRMSD -1
REMARK  Name = 
REMARK  7 active torsions:
REMARK  status: ('A' for Active; 'I' for Inactive)
REMARK    1  A    between atoms: C_1  and  C_2
REMARK    2  A    between atoms: C_2  and  N_3
REMARK    3  A    between atoms: N_3  and  C_4
REMARK    4  A    between atoms: N_7  and  N_8
REMARK    5  A    between atoms: N_13  and  C_14
REMARK    6  A    between atoms: C_14  and  C_15
REMARK    7  A    between atoms: C_14  and  C_16
REMARK                            x       y       z     vdW  Elec       q    Type
REMARK                         _______ _______ _______ _____ _____    ______ ____
ROOT
ATOM      1  C   UNL     1     -16.688   3.370   8.450  0.00  0.00    +0.000 A 
ATOM      2  N   UNL     1     -17.730   4.131   8.116  0.00  0.00    +0.000 NA
ATOM      3  C   UNL     1     -18.184   3.993   6.881  0.00  0.00    +0.000 A 
ATOM      4  N   UNL     1     -19.283   4.749   6.524  0.00  0.00    +0.000 N 
ATOM      5  N   UNL     1     -17.661   3.181   5.981  0.00  0.00    +0.000 NA
ATOM      6  C   UNL     1     -16.621   2.463   6.386  0.00  0.00    +0.000 A 
ATOM      7  N   UNL     1     -16.087   2.533   7.602  0.00  0.00    +0.000 NA
ATOM      8  N   UNL     1     -16.061   1.577   5.494  0.00  0.00    +0.000 N 
ATOM      9  H   UNL     1     -19.668   5.300   7.266  0.00  0.00    +0.000 HD
ATOM     10  H   UNL     1     -15.308   1.031   5.880  0.00  0.00    +0.000 HD
ENDROOT
BRANCH   8  11
ATOM     11  C   UNL     1     -16.574   1.411   4.152  0.00  0.00    +0.000 C 
ATOM     12  C   UNL     1     -15.435   1.542   3.146  0.00  0.00    +0.000 C 
ATOM     13  C   UNL     1     -17.242   0.048   4.000  0.00  0.00    +0.000 C 
ENDBRANCH   8  11
BRANCH   4  14
ATOM     14  N   UNL     1     -19.810   4.655   5.262  0.00  0.00    +0.000 NA
ATOM     15  N   UNL     1     -20.315   4.584   4.269  0.00  0.00    +0.000 NA
ENDBRANCH   4  14
BRANCH   1  16
ATOM     16  N   UNL     1     -16.105   3.530   9.654  0.00  0.00    +0.000 NA
BRANCH  16  18
ATOM     17  C   UNL     1     -16.978   4.414  11.852  0.00  0.00    +0.000 C 
ATOM     18  C   UNL     1     -16.898   3.255  10.863  0.00  0.00    +0.000 C 
ENDBRANCH  16  18
ENDBRANCH   1  16
TORSDOF 4
ENDMDL
MODEL 4
REMARK minimizedAffinity -4.69730806
REMARK minimizedRMSD -1
REMARK  Name = 
REMARK  7 active torsions:
REMARK  status: ('A' for Active; 'I' for Inactive)
REMARK    1  A    between atoms: C_1  and  C_2
REMARK    2  A    between atoms: C_2  and  N_3
REMARK    3  A    between atoms: N_3  and  C_4
REMARK    4  A    between atoms: N_7  and  N_8
REMARK    5  A    between atoms: N_13  and  C_14
REMARK    6  A    between atoms: C_14  and  C_15
REMARK    7  A    between atoms: C_14  and  C_16
REMARK                            x       y       z     vdW  Elec       q    Type
REMARK                         _______ _______ _______ _____ _____    ______ ____
ROOT
ATOM      1  C   UNL     1     -12.477  21.704  11.135  0.00  0.00    +0.000 A 
ATOM      2  N   UNL     1     -12.625  22.869  11.763  0.00  0.00    +0.000 NA
ATOM      3  C   UNL     1     -13.286  23.808  11.107  0.00  0.00    +0.000 A 
ATOM      4  N   UNL     1     -13.478  25.014  11.752  0.00  0.00    +0.000 N 
ATOM      5  N   UNL     1     -13.775  23.663   9.889  0.00  0.00    +0.000 NA
ATOM      6  C   UNL     1     -13.580  22.477   9.327  0.00  0.00    +0.000 A 
ATOM      7  N   UNL     1     -12.924  21.471   9.900  0.00  0.00    +0.000 NA
ATOM      8  N   UNL     1     -14.100  22.265   8.070  0.00  0.00    +0.000 N 
ATOM      9  H   UNL     1     -13.136  25.042  12.693  0.00  0.00    +0.000 HD
ATOM     10  H   UNL     1     -13.957  21.330   7.722  0.00  0.00    +0.000 HD
ENDROOT
BRANCH   8  11
ATOM     11  C   UNL     1     -14.843  23.286   7.364  0.00  0.00    +0.000 C 
ATOM     12  C   UNL     1     -13.944  23.951   6.327  0.00  0.00    +0.000 C 
ATOM     13  C   UNL     1     -16.062  22.680   6.676  0.00  0.00    +0.000 C 
ENDBRANCH   8  11
BRANCH   4  14
ATOM     14  N   UNL     1     -14.157  26.032  11.134  0.00  0.00    +0.000 NA
ATOM     15  N   UNL     1     -14.638  26.903  10.627  0.00  0.00    +0.000 NA
ENDBRANCH   4  14
BRANCH   1  16
ATOM     16  N   UNL     1     -11.727  20.735  11.695  0.00  0.00    +0.000 NA
BRANCH  16  18
ATOM     17  C   UNL     1     -10.030  20.029  13.428  0.00  0.00    +0.000 C 
ATOM     18  C   UNL     1     -10.568  21.127  12.515  0.00  0.00    +0.000 C 
ENDBRANCH  16  18
ENDBRANCH   1  16
TORSDOF 4
ENDMDL
MODEL 5
REMARK minimizedAffinity -4.67238474
REMARK minimizedRMSD -1
REMARK  Name = 
REMARK  7 active torsions:
REMARK  status: ('A' for Active; 'I' for Inactive)
REMARK    1  A    between atoms: C_1  and  C_2
REMARK    2  A    between atoms: C_2  and  N_3
REMARK    3  A    between atoms: N_3  and  C_4
REMARK    4  A    between atoms: N_7  and  N_8
REMARK    5  A    between atoms: N_13  and  C_14
REMARK    6  A    between atoms: C_14  and  C_15
REMARK    7  A    between atoms: C_14  and  C_16
REMARK                            x       y       z     vdW  Elec       q    Type
REMARK                         _______ _______ _______ _____ _____    ______ ____
ROOT
ATOM      1  C   UNL     1     -17.116  23.838  42.337  0.00  0.00    +0.000 A 
ATOM      2  N   UNL     1     -17.021  24.938  43.083  0.00  0.00    +0.000 NA
ATOM      3  C   UNL     1     -16.185  24.881  44.107  0.00  0.00    +0.000 A 
ATOM      4  N   UNL     1     -16.048  26.021  44.874  0.00  0.00    +0.000 N 
ATOM      5  N   UNL     1     -15.476  23.816  44.432  0.00  0.00    +0.000 NA
ATOM      6  C   UNL     1     -15.631  22.757  43.647  0.00  0.00    +0.000 A 
ATOM      7  N   UNL     1     -16.450  22.712  42.599  0.00  0.00    +0.000 NA
ATOM      8  N   UNL     1     -14.888  21.633  43.925  0.00  0.00    +0.000 N 
ATOM      9  H   UNL     1     -16.566  26.811  44.543  0.00  0.00    +0.000 HD
ATOM     10  H   UNL     1     -15.019  20.885  43.263  0.00  0.00    +0.000 HD
ENDROOT
BRANCH   8  11
ATOM     11  C   UNL     1     -13.957  21.582  45.031  0.00  0.00    +0.000 C 
ATOM     12  C   UNL     1     -14.248  20.356  45.891  0.00  0.00    +0.000 C 
ATOM     13  C   UNL     1     -12.522  21.523  44.518  0.00  0.00    +0.000 C 
ENDBRANCH   8  11
BRANCH   4  14
ATOM     14  N   UNL     1     -15.197  26.036  45.949  0.00  0.00    +0.000 NA
ATOM     15  N   UNL     1     -14.460  26.107  46.784  0.00  0.00    +0.000 NA
ENDBRANCH   4  14
BRANCH   1  16
ATOM     16  N   UNL     1     -18.022  23.783  41.342  0.00  0.00    +0.000 NA
BRANCH  16  18
ATOM     17  C   UNL     1     -18.185  22.292  39.310  0.00  0.00    +0.000 C 
ATOM     18  C   UNL     1     -18.406  22.464  40.810  0.00  0.00    +0.000 C 
ENDBRANCH  16  18
ENDBRANCH   1  16
TORSDOF 4
ENDMDL
MODEL 6
REMARK minimizedAffinity -4.67030239
REMARK minimizedRMSD -1
REMARK  Name = 
REMARK  7 active torsions:
REMARK  status: ('A' for Active; 'I' for Inactive)
REMARK    1  A    between atoms: C_1  and  C_2
REMARK    2  A    between atoms: C_2  and  N_3
REMARK    3  A    between atoms: N_3  and  C_4
REMARK    4  A    between atoms: N_7  and  N_8
REMARK    5  A    between atoms: N_13  and  C_14
REMARK    6  A    between atoms: C_14  and  C_15
REMARK    7  A    between atoms: C_14  and  C_16
REMARK                            x       y       z     vdW  Elec       q    Type
REMARK                         _______ _______ _______ _____ _____    ______ ____
ROOT
ATOM      1  C   UNL     1     -12.936  22.781  45.133  0.00  0.00    +0.000 A 
ATOM      2  N   UNL     1     -13.857  23.003  44.197  0.00  0.00    +0.000 NA
ATOM      3  C   UNL     1     -14.624  24.067  44.369  0.00  0.00    +0.000 A 
ATOM      4  N   UNL     1     -15.564  24.333  43.394  0.00  0.00    +0.000 N 
ATOM      5  N   UNL     1     -14.541  24.886  45.402  0.00  0.00    +0.000 NA
ATOM      6  C   UNL     1     -13.605  24.593  46.297  0.00  0.00    +0.000 A 
ATOM      7  N   UNL     1     -12.790  23.545  46.217  0.00  0.00    +0.000 NA
ATOM      8  N   UNL     1     -13.457  25.436  47.375  0.00  0.00    +0.000 N 
ATOM      9  H   UNL     1     -15.538  23.712  42.610  0.00  0.00    +0.000 HD
ATOM     10  H   UNL     1     -12.699  25.183  47.989  0.00  0.00    +0.000 HD
ENDROOT
BRANCH   8  11
ATOM     11  C   UNL     1     -14.281  26.612  47.550  0.00  0.00    +0.000 C 
ATOM     12  C   UNL     1     -15.464  26.281  48.454  0.00  0.00    +0.000 C 
ATOM     13  C   UNL     1     -13.467  27.748  48.161  0.00  0.00    +0.000 C 
ENDBRANCH   8  11
BRANCH   4  14
ATOM     14  N   UNL     1     -16.391  25.421  43.506  0.00  0.00    +0.000 NA
ATOM     15  N   UNL     1     -17.116  26.270  43.541  0.00  0.00    +0.000 NA
ENDBRANCH   4  14
BRANCH   1  16
ATOM     16  N   UNL     1     -12.189  21.661  45.081  0.00  0.00    +0.000 NA
BRANCH  16  18
ATOM     17  C   UNL     1     -12.380  19.707  43.492  0.00  0.00    +0.000 C 
ATOM     18  C   UNL     1     -12.854  20.383  44.775  0.00  0.00    +0.000 C 
ENDBRANCH  16  18
ENDBRANCH   1  16
TORSDOF 4
ENDMDL
MODEL 7
REMARK minimizedAffinity -4.64650011
REMARK minimizedRMSD -1
REMARK  Name = 
REMARK  7 active torsions:
REMARK  status: ('A' for Active; 'I' for Inactive)
REMARK    1  A    between atoms: C_1  and  C_2
REMARK    2  A    between atoms: C_2  and  N_3
REMARK    3  A    between atoms: N_3  and  C_4
REMARK    4  A    between atoms: N_7  and  N_8
REMARK    5  A    between atoms: N_13  and  C_14
REMARK    6  A    between atoms: C_14  and  C_15
REMARK    7  A    between atoms: C_14  and  C_16
REMARK                            x       y       z     vdW  Elec       q    Type
REMARK                         _______ _______ _______ _____ _____    ______ ____
ROOT
ATOM      1  C   UNL     1     -13.205  23.269  45.529  0.00  0.00    +0.000 A 
ATOM      2  N   UNL     1     -12.881  22.821  46.741  0.00  0.00    +0.000 NA
ATOM      3  C   UNL     1     -12.556  21.541  46.825  0.00  0.00    +0.000 A 
ATOM      4  N   UNL     1     -12.186  21.063  48.065  0.00  0.00    +0.000 N 
ATOM      5  N   UNL     1     -12.557  20.704  45.804  0.00  0.00    +0.000 NA
ATOM      6  C   UNL     1     -12.900  21.223  44.631  0.00  0.00    +0.000 A 
ATOM      7  N   UNL     1     -13.248  22.494  44.444  0.00  0.00    +0.000 NA
ATOM      8  N   UNL     1     -12.885  20.398  43.530  0.00  0.00    +0.000 N 
ATOM      9  H   UNL     1     -12.148  21.758  48.786  0.00  0.00    +0.000 HD
ATOM     10  H   UNL     1     -13.109  20.866  42.667  0.00  0.00    +0.000 HD
ENDROOT
BRANCH   8  11
ATOM     11  C   UNL     1     -12.507  19.004  43.620  0.00  0.00    +0.000 C 
ATOM     12  C   UNL     1     -13.743  18.125  43.462  0.00  0.00    +0.000 C 
ATOM     13  C   UNL     1     -11.487  18.657  42.540  0.00  0.00    +0.000 C 
ENDBRANCH   8  11
BRANCH   4  14
ATOM     14  N   UNL     1     -11.834  19.748  48.226  0.00  0.00    +0.000 NA
ATOM     15  N   UNL     1     -11.467  18.702  48.366  0.00  0.00    +0.000 NA
ENDBRANCH   4  14
BRANCH   1  16
ATOM     16  N   UNL     1     -13.648  24.533  45.383  0.00  0.00    +0.000 NA
BRANCH  16  18
ATOM     17  C   UNL     1     -15.841  25.139  44.287  0.00  0.00    +0.000 C 
ATOM     18  C   UNL     1     -15.084  24.804  45.568  0.00  0.00    +0.000 C 
ENDBRANCH  16  18
ENDBRANCH   1  16
TORSDOF 4
ENDMDL
MODEL 8
REMARK minimizedAffinity -4.62585449
REMARK minimizedRMSD -1
REMARK  Name = 
REMARK  7 active torsions:
REMARK  status: ('A' for Active; 'I' for Inactive)
REMARK    1  A    between atoms: C_1  and  C_2
REMARK    2  A    between atoms: C_2  and  N_3
REMARK    3  A    between atoms: N_3  and  C_4
REMARK    4  A    between atoms: N_7  and  N_8
REMARK    5  A    between atoms: N_13  and  C_14
REMARK    6  A    between atoms: C_14  and  C_15
REMARK    7  A    between atoms: C_14  and  C_16
REMARK                            x       y       z     vdW  Elec       q    Type
REMARK                         _______ _______ _______ _____ _____    ______ ____
ROOT
ATOM      1  C   UNL     1     -16.198  23.843  43.609  0.00  0.00    +0.000 A 
ATOM      2  N   UNL     1     -16.864  24.219  42.519  0.00  0.00    +0.000 NA
ATOM      3  C   UNL     1     -17.160  23.262  41.655  0.00  0.00    +0.000 A 
ATOM      4  N   UNL     1     -17.878  23.623  40.532  0.00  0.00    +0.000 N 
ATOM      5  N   UNL     1     -16.822  21.993  41.802  0.00  0.00    +0.000 NA
ATOM      6  C   UNL     1     -16.153  21.700  42.910  0.00  0.00    +0.000 A 
ATOM      7  N   UNL     1     -15.802  22.589  43.835  0.00  0.00    +0.000 NA
ATOM      8  N   UNL     1     -15.807  20.385  43.125  0.00  0.00    +0.000 N 
ATOM      9  H   UNL     1     -18.155  24.586  40.506  0.00  0.00    +0.000 HD
ATOM     10  H   UNL     1     -15.344  20.225  44.005  0.00  0.00    +0.000 HD
ENDROOT
BRANCH   8  11
ATOM     11  C   UNL     1     -16.153  19.337  42.190  0.00  0.00    +0.000 C 
ATOM     12  C   UNL     1     -14.894  18.839  41.487  0.00  0.00    +0.000 C 
ATOM     13  C   UNL     1     -16.830  18.178  42.914  0.00  0.00    +0.000 C 
ENDBRANCH   8  11
BRANCH   4  14
ATOM     14  N   UNL     1     -18.223  22.684  39.596  0.00  0.00    +0.000 NA
ATOM     15  N   UNL     1     -18.428  21.929  38.799  0.00  0.00    +0.000 NA
ENDBRANCH   4  14
BRANCH   1  16
ATOM     16  N   UNL     1     -15.770  24.775  44.483  0.00  0.00    +0.000 NA
BRANCH  16  18
ATOM     17  C   UNL     1     -16.301  26.817  45.871  0.00  0.00    +0.000 C 
ATOM     18  C   UNL     1     -16.500  26.051  44.567  0.00  0.00    +0.000 C 
ENDBRANCH  16  18
ENDBRANCH   1  16
TORSDOF 4
ENDMDL
MODEL 9
REMARK minimizedAffinity -4.58380604
REMARK minimizedRMSD -1
REMARK  Name = 
REMARK  7 active torsions:
REMARK  status: ('A' for Active; 'I' for Inactive)
REMARK    1  A    between atoms: C_1  and  C_2
REMARK    2  A    between atoms: C_2  and  N_3
REMARK    3  A    between atoms: N_3  and  C_4
REMARK    4  A    between atoms: N_7  and  N_8
REMARK    5  A    between atoms: N_13  and  C_14
REMARK    6  A    between atoms: C_14  and  C_15
REMARK    7  A    between atoms: C_14  and  C_16
REMARK                            x       y       z     vdW  Elec       q    Type
REMARK                         _______ _______ _______ _____ _____    ______ ____
ROOT
ATOM      1  C   UNL     1      -2.980  36.675  31.234  0.00  0.00    +0.000 A 
ATOM      2  N   UNL     1      -2.227  36.001  30.366  0.00  0.00    +0.000 NA
ATOM      3  C   UNL     1      -2.850  35.511  29.307  0.00  0.00    +0.000 A 
ATOM      4  N   UNL     1      -2.083  34.836  28.379  0.00  0.00    +0.000 N 
ATOM      5  N   UNL     1      -4.146  35.633  29.081  0.00  0.00    +0.000 NA
ATOM      6  C   UNL     1      -4.829  36.310  29.995  0.00  0.00    +0.000 A 
ATOM      7  N   UNL     1      -4.298  36.836  31.096  0.00  0.00    +0.000 NA
ATOM      8  N   UNL     1      -6.178  36.493  29.788  0.00  0.00    +0.000 N 
ATOM      9  H   UNL     1      -1.101  34.828  28.576  0.00  0.00    +0.000 HD
ATOM     10  H   UNL     1      -6.625  37.055  30.495  0.00  0.00    +0.000 HD
ENDROOT
BRANCH   8  11
ATOM     11  C   UNL     1      -6.852  35.977  28.618  0.00  0.00    +0.000 C 
ATOM     12  C   UNL     1      -7.977  35.039  29.044  0.00  0.00    +0.000 C 
ATOM     13  C   UNL     1      -7.422  37.119  27.783  0.00  0.00    +0.000 C 
ENDBRANCH   8  11
BRANCH   4  14
ATOM     14  N   UNL     1      -2.661  34.304  27.255  0.00  0.00    +0.000 NA
ATOM     15  N   UNL     1      -3.055  33.874  26.303  0.00  0.00    +0.000 NA
ENDBRANCH   4  14
BRANCH   1  16
ATOM     16  N   UNL     1      -2.439  37.113  32.387  0.00  0.00    +0.000 NA
BRANCH  16  18
ATOM     17  C   UNL     1      -2.514  37.411  34.894  0.00  0.00    +0.000 C 
ATOM     18  C   UNL     1      -3.268  37.103  33.604  0.00  0.00    +0.000 C 
ENDBRANCH  16  18
ENDBRANCH   1  16
TORSDOF 4
ENDMDL
