MODEL 1
REMARK minimizedAffinity -4.7909646
REMARK minimizedRMSD -1
REMARK  Name = 
REMARK  7 active torsions:
REMARK  status: ('A' for Active; 'I' for Inactive)
REMARK    1  A    between atoms: N_2  and  N_3
REMARK    2  A    between atoms: C_6  and  N_7
REMARK    3  A    between atoms: N_7  and  C_8
REMARK    4  A    between atoms: C_8  and  C_9
REMARK    5  A    between atoms: C_8  and  C_10
REMARK    6  A    between atoms: C_12  and  S_14
REMARK    7  A    between atoms: S_14  and  C_15
REMARK                            x       y       z     vdW  Elec       q    Type
REMARK                         _______ _______ _______ _____ _____    ______ ____
ROOT
ATOM      1  N   UNL     1     -13.489  21.911   7.858  0.00  0.00    +0.000 N 
ATOM      2  C   UNL     1     -13.196  22.331   9.138  0.00  0.00    +0.000 A 
ATOM      3  N   UNL     1     -12.697  21.441   9.973  0.00  0.00    +0.000 NA
ATOM      4  C   UNL     1     -12.321  21.867  11.171  0.00  0.00    +0.000 A 
ATOM      5  N   UNL     1     -12.498  23.114  11.578  0.00  0.00    +0.000 NA
ATOM      6  C   UNL     1     -13.063  23.932  10.687  0.00  0.00    +0.000 A 
ATOM      7  N   UNL     1     -13.390  23.617   9.427  0.00  0.00    +0.000 NA
ATOM      8  H   UNL     1     -13.326  22.572   7.129  0.00  0.00    +0.000 HD
ENDROOT
BRANCH   1  10
ATOM      9  N   UNL     1     -14.164  19.570   7.355  0.00  0.00    +0.000 NA
ATOM     10  N   UNL     1     -13.934  20.629   7.625  0.00  0.00    +0.000 NA
ENDBRANCH   1  10
BRANCH   6  11
ATOM     11  S   UNL     1     -13.386  25.588  11.299  0.00  0.00    +0.000 S 
ATOM     12  C   UNL     1     -12.229  25.759  12.679  0.00  0.00    +0.000 C 
ENDBRANCH   6  11
BRANCH   4  13
ATOM     13  N   UNL     1     -11.729  21.027  12.041  0.00  0.00    +0.000 NA
BRANCH  13  14
ATOM     14  C   UNL     1     -10.251  21.021  12.152  0.00  0.00    +0.000 C 
ATOM     15  C   UNL     1      -9.760  21.194  13.594  0.00  0.00    +0.000 C 
ATOM     16  C   UNL     1      -9.606  19.803  11.480  0.00  0.00    +0.000 C 
ENDBRANCH  13  14
ENDBRANCH   4  13
TORSDOF 4
ENDMDL
MODEL 2
REMARK minimizedAffinity -4.72964334
REMARK minimizedRMSD -1
REMARK  Name = 
REMARK  7 active torsions:
REMARK  status: ('A' for Active; 'I' for Inactive)
REMARK    1  A    between atoms: N_2  and  N_3
REMARK    2  A    between atoms: C_6  and  N_7
REMARK    3  A    between atoms: N_7  and  C_8
REMARK    4  A    between atoms: C_8  and  C_9
REMARK    5  A    between atoms: C_8  and  C_10
REMARK    6  A    between atoms: C_12  and  S_14
REMARK    7  A    between atoms: S_14  and  C_15
REMARK                            x       y       z     vdW  Elec       q    Type
REMARK                         _______ _______ _______ _____ _____    ______ ____
ROOT
ATOM      1  N   UNL     1      -5.663  25.922  16.213  0.00  0.00    +0.000 N 
ATOM      2  C   UNL     1      -6.796  25.159  16.025  0.00  0.00    +0.000 A 
ATOM      3  N   UNL     1      -7.952  25.683  16.386  0.00  0.00    +0.000 NA
ATOM      4  C   UNL     1      -9.050  24.994  16.113  0.00  0.00    +0.000 A 
ATOM      5  N   UNL     1      -9.024  23.785  15.574  0.00  0.00    +0.000 NA
ATOM      6  C   UNL     1      -7.808  23.309  15.295  0.00  0.00    +0.000 A 
ATOM      7  N   UNL     1      -6.652  23.967  15.449  0.00  0.00    +0.000 NA
ATOM      8  H   UNL     1      -4.953  25.834  15.518  0.00  0.00    +0.000 HD
ENDROOT
BRANCH   1  10
ATOM      9  N   UNL     1      -5.429  27.582  18.051  0.00  0.00    +0.000 NA
ATOM     10  N   UNL     1      -5.566  26.782  17.284  0.00  0.00    +0.000 NA
ENDBRANCH   1  10
BRANCH   6  11
ATOM     11  S   UNL     1      -7.795  21.630  14.661  0.00  0.00    +0.000 S 
ATOM     12  C   UNL     1      -9.501  21.373  14.116  0.00  0.00    +0.000 C 
ENDBRANCH   6  11
BRANCH   4  13
ATOM     13  N   UNL     1     -10.265  25.507  16.380  0.00  0.00    +0.000 NA
BRANCH  13  14
ATOM     14  C   UNL     1     -10.877  26.458  15.421  0.00  0.00    +0.000 C 
ATOM     15  C   UNL     1     -10.537  27.921  15.734  0.00  0.00    +0.000 C 
ATOM     16  C   UNL     1     -10.577  26.110  13.959  0.00  0.00    +0.000 C 
ENDBRANCH  13  14
ENDBRANCH   4  13
TORSDOF 4
ENDMDL
MODEL 3
REMARK minimizedAffinity -4.6820612
REMARK minimizedRMSD -1
REMARK  Name = 
REMARK  7 active torsions:
REMARK  status: ('A' for Active; 'I' for Inactive)
REMARK    1  A    between atoms: N_2  and  N_3
REMARK    2  A    between atoms: C_6  and  N_7
REMARK    3  A    between atoms: N_7  and  C_8
REMARK    4  A    between atoms: C_8  and  C_9
REMARK    5  A    between atoms: C_8  and  C_10
REMARK    6  A    between atoms: C_12  and  S_14
REMARK    7  A    between atoms: S_14  and  C_15
REMARK                            x       y       z     vdW  Elec       q    Type
REMARK                         _______ _______ _______ _____ _____    ______ ____
ROOT
ATOM      1  N   UNL     1     -19.399  17.579  39.657  0.00  0.00    +0.000 N 
ATOM      2  C   UNL     1     -18.218  18.263  39.854  0.00  0.00    +0.000 A 
ATOM      3  N   UNL     1     -18.237  19.572  39.692  0.00  0.00    +0.000 NA
ATOM      4  C   UNL     1     -17.130  20.242  39.978  0.00  0.00    +0.000 A 
ATOM      5  N   UNL     1     -16.003  19.646  40.338  0.00  0.00    +0.000 NA
ATOM      6  C   UNL     1     -16.061  18.315  40.421  0.00  0.00    +0.000 A 
ATOM      7  N   UNL     1     -17.153  17.563  40.241  0.00  0.00    +0.000 NA
ATOM      8  H   UNL     1     -19.560  16.797  40.257  0.00  0.00    +0.000 HD
ENDROOT
BRANCH   1  10
ATOM      9  N   UNL     1     -21.038  18.200  37.892  0.00  0.00    +0.000 NA
ATOM     10  N   UNL     1     -20.307  18.003  38.713  0.00  0.00    +0.000 NA
ENDBRANCH   1  10
BRANCH   6  11
ATOM     11  S   UNL     1     -14.496  17.527  40.810  0.00  0.00    +0.000 S 
ATOM     12  C   UNL     1     -13.676  18.729  41.886  0.00  0.00    +0.000 C 
ENDBRANCH   6  11
BRANCH   4  13
ATOM     13  N   UNL     1     -17.106  21.586  39.913  0.00  0.00    +0.000 NA
BRANCH  13  14
ATOM     14  C   UNL     1     -17.977  22.371  40.820  0.00  0.00    +0.000 C 
ATOM     15  C   UNL     1     -17.186  23.141  41.885  0.00  0.00    +0.000 C 
ATOM     16  C   UNL     1     -18.952  23.287  40.071  0.00  0.00    +0.000 C 
ENDBRANCH  13  14
ENDBRANCH   4  13
TORSDOF 4
ENDMDL
MODEL 4
REMARK minimizedAffinity -4.6556282
REMARK minimizedRMSD -1
REMARK  Name = 
REMARK  7 active torsions:
REMARK  status: ('A' for Active; 'I' for Inactive)
REMARK    1  A    between atoms: N_2  and  N_3
REMARK    2  A    between atoms: C_6  and  N_7
REMARK    3  A    between atoms: N_7  and  C_8
REMARK    4  A    between atoms: C_8  and  C_9
REMARK    5  A    between atoms: C_8  and  C_10
REMARK    6  A    between atoms: C_12  and  S_14
REMARK    7  A    between atoms: S_14  and  C_15
REMARK                            x       y       z     vdW  Elec       q    Type
REMARK                         _______ _______ _______ _____ _____    ______ ____
ROOT
ATOM      1  N   UNL     1     -16.346  33.028  19.205  0.00  0.00    +0.000 N 
ATOM      2  C   UNL     1     -16.697  34.071  18.373  0.00  0.00    +0.000 A 
ATOM      3  N   UNL     1     -16.557  33.890  17.075  0.00  0.00    +0.000 NA
ATOM      4  C   UNL     1     -16.988  34.851  16.271  0.00  0.00    +0.000 A 
ATOM      5  N   UNL     1     -17.473  35.999  16.719  0.00  0.00    +0.000 NA
ATOM      6  C   UNL     1     -17.525  36.118  18.048  0.00  0.00    +0.000 A 
ATOM      7  N   UNL     1     -17.200  35.169  18.935  0.00  0.00    +0.000 NA
ATOM      8  H   UNL     1     -16.908  32.908  20.021  0.00  0.00    +0.000 HD
ENDROOT
BRANCH   1  10
ATOM      9  N   UNL     1     -14.561  31.440  18.514  0.00  0.00    +0.000 NA
ATOM     10  N   UNL     1     -15.305  32.189  18.877  0.00  0.00    +0.000 NA
ENDBRANCH   1  10
BRANCH   6  11
ATOM     11  S   UNL     1     -18.089  37.720  18.629  0.00  0.00    +0.000 S 
ATOM     12  C   UNL     1     -17.128  37.982  20.139  0.00  0.00    +0.000 C 
ENDBRANCH   6  11
BRANCH   4  13
ATOM     13  N   UNL     1     -16.949  34.695  14.934  0.00  0.00    +0.000 NA
BRANCH  13  14
ATOM     14  C   UNL     1     -17.740  33.610  14.308  0.00  0.00    +0.000 C 
ATOM     15  C   UNL     1     -19.245  33.738  14.577  0.00  0.00    +0.000 C 
ATOM     16  C   UNL     1     -17.449  33.443  12.812  0.00  0.00    +0.000 C 
ENDBRANCH  13  14
ENDBRANCH   4  13
TORSDOF 4
ENDMDL
MODEL 5
REMARK minimizedAffinity -4.64288235
REMARK minimizedRMSD -1
REMARK  Name = 
REMARK  7 active torsions:
REMARK  status: ('A' for Active; 'I' for Inactive)
REMARK    1  A    between atoms: N_2  and  N_3
REMARK    2  A    between atoms: C_6  and  N_7
REMARK    3  A    between atoms: N_7  and  C_8
REMARK    4  A    between atoms: C_8  and  C_9
REMARK    5  A    between atoms: C_8  and  C_10
REMARK    6  A    between atoms: C_12  and  S_14
REMARK    7  A    between atoms: S_14  and  C_15
REMARK                            x       y       z     vdW  Elec       q    Type
REMARK                         _______ _______ _______ _____ _____    ______ ____
ROOT
ATOM      1  N   UNL     1     -11.658  18.662  42.104  0.00  0.00    +0.000 N 
ATOM      2  C   UNL     1     -12.036  19.210  43.312  0.00  0.00    +0.000 A 
ATOM      3  N   UNL     1     -11.933  20.518  43.447  0.00  0.00    +0.000 NA
ATOM      4  C   UNL     1     -12.390  21.057  44.568  0.00  0.00    +0.000 A 
ATOM      5  N   UNL     1     -12.863  20.335  45.571  0.00  0.00    +0.000 NA
ATOM      6  C   UNL     1     -12.876  19.014  45.370  0.00  0.00    +0.000 A 
ATOM      7  N   UNL     1     -12.523  18.389  44.240  0.00  0.00    +0.000 NA
ATOM      8  H   UNL     1     -12.195  17.883  41.788  0.00  0.00    +0.000 HD
ENDROOT
BRANCH   1  10
ATOM      9  N   UNL     1      -9.695  19.559  40.868  0.00  0.00    +0.000 NA
ATOM     10  N   UNL     1     -10.625  19.210  41.377  0.00  0.00    +0.000 NA
ENDBRANCH   1  10
BRANCH   6  11
ATOM     11  S   UNL     1     -13.426  18.053  46.782  0.00  0.00    +0.000 S 
ATOM     12  C   UNL     1     -12.957  19.078  48.197  0.00  0.00    +0.000 C 
ENDBRANCH   6  11
BRANCH   4  13
ATOM     13  N   UNL     1     -12.390  22.393  44.735  0.00  0.00    +0.000 NA
BRANCH  13  14
ATOM     14  C   UNL     1     -13.554  23.042  45.384  0.00  0.00    +0.000 C 
ATOM     15  C   UNL     1     -13.147  24.070  46.447  0.00  0.00    +0.000 C 
ATOM     16  C   UNL     1     -14.547  23.635  44.378  0.00  0.00    +0.000 C 
ENDBRANCH  13  14
ENDBRANCH   4  13
TORSDOF 4
ENDMDL
MODEL 6
REMARK minimizedAffinity -4.62445641
REMARK minimizedRMSD -1
REMARK  Name = 
REMARK  7 active torsions:
REMARK  status: ('A' for Active; 'I' for Inactive)
REMARK    1  A    between atoms: N_2  and  N_3
REMARK    2  A    between atoms: C_6  and  N_7
REMARK    3  A    between atoms: N_7  and  C_8
REMARK    4  A    between atoms: C_8  and  C_9
REMARK    5  A    between atoms: C_8  and  C_10
REMARK    6  A    between atoms: C_12  and  S_14
REMARK    7  A    between atoms: S_14  and  C_15
REMARK                            x       y       z     vdW  Elec       q    Type
REMARK                         _______ _______ _______ _____ _____    ______ ____
ROOT
ATOM      1  N   UNL     1       2.292  26.131  29.850  0.00  0.00    +0.000 N 
ATOM      2  C   UNL     1       3.070  26.610  30.883  0.00  0.00    +0.000 A 
ATOM      3  N   UNL     1       3.393  25.766  31.845  0.00  0.00    +0.000 NA
ATOM      4  C   UNL     1       4.224  26.195  32.784  0.00  0.00    +0.000 A 
ATOM      5  N   UNL     1       4.669  27.441  32.834  0.00  0.00    +0.000 NA
ATOM      6  C   UNL     1       4.244  28.241  31.852  0.00  0.00    +0.000 A 
ATOM      7  N   UNL     1       3.483  27.874  30.814  0.00  0.00    +0.000 NA
ATOM      8  H   UNL     1       2.490  26.498  28.944  0.00  0.00    +0.000 HD
ENDROOT
BRANCH   1  10
ATOM      9  N   UNL     1       0.529  24.397  30.114  0.00  0.00    +0.000 NA
ATOM     10  N   UNL     1       1.336  25.168  30.080  0.00  0.00    +0.000 NA
ENDBRANCH   1  10
BRANCH   6  11
ATOM     11  S   UNL     1       4.779  29.948  32.001  0.00  0.00    +0.000 S 
ATOM     12  C   UNL     1       6.443  29.808  32.698  0.00  0.00    +0.000 C 
ENDBRANCH   6  11
BRANCH   4  13
ATOM     13  N   UNL     1       4.657  25.362  33.748  0.00  0.00    +0.000 NA
BRANCH  13  14
ATOM     14  C   UNL     1       4.437  23.904  33.598  0.00  0.00    +0.000 C 
ATOM     15  C   UNL     1       5.584  23.200  32.862  0.00  0.00    +0.000 C 
ATOM     16  C   UNL     1       4.109  23.208  34.925  0.00  0.00    +0.000 C 
ENDBRANCH  13  14
ENDBRANCH   4  13
TORSDOF 4
ENDMDL
MODEL 7
REMARK minimizedAffinity -4.58955288
REMARK minimizedRMSD -1
REMARK  Name = 
REMARK  7 active torsions:
REMARK  status: ('A' for Active; 'I' for Inactive)
REMARK    1  A    between atoms: N_2  and  N_3
REMARK    2  A    between atoms: C_6  and  N_7
REMARK    3  A    between atoms: N_7  and  C_8
REMARK    4  A    between atoms: C_8  and  C_9
REMARK    5  A    between atoms: C_8  and  C_10
REMARK    6  A    between atoms: C_12  and  S_14
REMARK    7  A    between atoms: S_14  and  C_15
REMARK                            x       y       z     vdW  Elec       q    Type
REMARK                         _______ _______ _______ _____ _____    ______ ____
ROOT
ATOM      1  N   UNL     1      -9.550  37.171  24.374  0.00  0.00    +0.000 N 
ATOM      2  C   UNL     1      -8.783  36.388  25.213  0.00  0.00    +0.000 A 
ATOM      3  N   UNL     1      -8.025  35.462  24.658  0.00  0.00    +0.000 NA
ATOM      4  C   UNL     1      -7.214  34.777  25.452  0.00  0.00    +0.000 A 
ATOM      5  N   UNL     1      -7.195  34.933  26.766  0.00  0.00    +0.000 NA
ATOM      6  C   UNL     1      -8.037  35.853  27.246  0.00  0.00    +0.000 A 
ATOM      7  N   UNL     1      -8.824  36.653  26.517  0.00  0.00    +0.000 NA
ATOM      8  H   UNL     1      -9.660  38.126  24.643  0.00  0.00    +0.000 HD
ENDROOT
BRANCH   1  10
ATOM      9  N   UNL     1     -10.416  36.326  22.201  0.00  0.00    +0.000 NA
ATOM     10  N   UNL     1     -10.079  36.648  23.216  0.00  0.00    +0.000 NA
ENDBRANCH   1  10
BRANCH   6  11
ATOM     11  S   UNL     1      -8.065  35.971  29.036  0.00  0.00    +0.000 S 
ATOM     12  C   UNL     1      -6.322  36.184  29.472  0.00  0.00    +0.000 C 
ENDBRANCH   6  11
BRANCH   4  13
ATOM     13  N   UNL     1      -6.356  33.875  24.940  0.00  0.00    +0.000 NA
BRANCH  13  14
ATOM     14  C   UNL     1      -4.941  34.261  24.724  0.00  0.00    +0.000 C 
ATOM     15  C   UNL     1      -3.960  33.118  25.016  0.00  0.00    +0.000 C 
ATOM     16  C   UNL     1      -4.692  34.878  23.343  0.00  0.00    +0.000 C 
ENDBRANCH  13  14
ENDBRANCH   4  13
TORSDOF 4
ENDMDL
MODEL 8
REMARK minimizedAffinity -4.58058405
REMARK minimizedRMSD -1
REMARK  Name = 
REMARK  7 active torsions:
REMARK  status: ('A' for Active; 'I' for Inactive)
REMARK    1  A    between atoms: N_2  and  N_3
REMARK    2  A    between atoms: C_6  and  N_7
REMARK    3  A    between atoms: N_7  and  C_8
REMARK    4  A    between atoms: C_8  and  C_9
REMARK    5  A    between atoms: C_8  and  C_10
REMARK    6  A    between atoms: C_12  and  S_14
REMARK    7  A    between atoms: S_14  and  C_15
REMARK                            x       y       z     vdW  Elec       q    Type
REMARK                         _______ _______ _______ _____ _____    ______ ____
ROOT
ATOM      1  N   UNL     1     -18.945  22.093  39.578  0.00  0.00    +0.000 N 
ATOM      2  C   UNL     1     -18.881  22.590  40.863  0.00  0.00    +0.000 A 
ATOM      3  N   UNL     1     -17.783  23.230  41.215  0.00  0.00    +0.000 NA
ATOM      4  C   UNL     1     -17.760  23.796  42.414  0.00  0.00    +0.000 A 
ATOM      5  N   UNL     1     -18.752  23.675  43.283  0.00  0.00    +0.000 NA
ATOM      6  C   UNL     1     -19.799  22.962  42.862  0.00  0.00    +0.000 A 
ATOM      7  N   UNL     1     -19.950  22.434  41.641  0.00  0.00    +0.000 NA
ATOM      8  H   UNL     1     -19.840  22.126  39.137  0.00  0.00    +0.000 HD
ENDROOT
BRANCH   1  10
ATOM      9  N   UNL     1     -16.868  21.170  38.568  0.00  0.00    +0.000 NA
ATOM     10  N   UNL     1     -17.812  21.629  38.948  0.00  0.00    +0.000 NA
ENDBRANCH   1  10
BRANCH   6  11
ATOM     11  S   UNL     1     -21.082  22.729  44.095  0.00  0.00    +0.000 S 
ATOM     12  C   UNL     1     -22.589  22.564  43.108  0.00  0.00    +0.000 C 
ENDBRANCH   6  11
BRANCH   4  13
ATOM     13  N   UNL     1     -16.703  24.532  42.804  0.00  0.00    +0.000 NA
BRANCH  13  14
ATOM     14  C   UNL     1     -16.161  24.354  44.172  0.00  0.00    +0.000 C 
ATOM     15  C   UNL     1     -14.838  23.578  44.193  0.00  0.00    +0.000 C 
ATOM     16  C   UNL     1     -16.054  25.670  44.950  0.00  0.00    +0.000 C 
ENDBRANCH  13  14
ENDBRANCH   4  13
TORSDOF 4
ENDMDL
MODEL 9
REMARK minimizedAffinity -4.57728863
REMARK minimizedRMSD -1
REMARK  Name = 
REMARK  7 active torsions:
REMARK  status: ('A' for Active; 'I' for Inactive)
REMARK    1  A    between atoms: N_2  and  N_3
REMARK    2  A    between atoms: C_6  and  N_7
REMARK    3  A    between atoms: N_7  and  C_8
REMARK    4  A    between atoms: C_8  and  C_9
REMARK    5  A    between atoms: C_8  and  C_10
REMARK    6  A    between atoms: C_12  and  S_14
REMARK    7  A    between atoms: S_14  and  C_15
REMARK                            x       y       z     vdW  Elec       q    Type
REMARK                         _______ _______ _______ _____ _____    ______ ____
ROOT
ATOM      1  N   UNL     1     -13.820  23.824  45.349  0.00  0.00    +0.000 N 
ATOM      2  C   UNL     1     -14.920  24.262  44.641  0.00  0.00    +0.000 A 
ATOM      3  N   UNL     1     -15.356  23.498  43.658  0.00  0.00    +0.000 NA
ATOM      4  C   UNL     1     -16.471  23.865  43.043  0.00  0.00    +0.000 A 
ATOM      5  N   UNL     1     -17.107  24.993  43.323  0.00  0.00    +0.000 NA
ATOM      6  C   UNL     1     -16.562  25.732  44.293  0.00  0.00    +0.000 A 
ATOM      7  N   UNL     1     -15.495  25.399  45.029  0.00  0.00    +0.000 NA
ATOM      8  H   UNL     1     -13.817  24.027  46.326  0.00  0.00    +0.000 HD
ENDROOT
BRANCH   1  10
ATOM      9  N   UNL     1     -12.124  22.424  44.188  0.00  0.00    +0.000 NA
ATOM     10  N   UNL     1     -12.823  23.109  44.725  0.00  0.00    +0.000 NA
ENDBRANCH   1  10
BRANCH   6  11
ATOM     11  S   UNL     1     -17.384  27.301  44.580  0.00  0.00    +0.000 S 
ATOM     12  C   UNL     1     -16.651  27.882  46.129  0.00  0.00    +0.000 C 
ENDBRANCH   6  11
BRANCH   4  13
ATOM     13  N   UNL     1     -17.014  23.089  42.087  0.00  0.00    +0.000 NA
BRANCH  13  14
ATOM     14  C   UNL     1     -18.431  23.295  41.704  0.00  0.00    +0.000 C 
ATOM     15  C   UNL     1     -18.654  23.228  40.188  0.00  0.00    +0.000 C 
ATOM     16  C   UNL     1     -19.395  22.371  42.456  0.00  0.00    +0.000 C 
ENDBRANCH  13  14
ENDBRANCH   4  13
TORSDOF 4
ENDMDL
