MODEL 1
REMARK minimizedAffinity -4.67860317
REMARK minimizedRMSD -1
REMARK  Name = 
REMARK  7 active torsions:
REMARK  status: ('A' for Active; 'I' for Inactive)
REMARK    1  A    between atoms: C_1  and  C_2
REMARK    2  A    between atoms: C_2  and  N_3
REMARK    3  A    between atoms: N_3  and  C_4
REMARK    4  A    between atoms: N_7  and  N_8
REMARK    5  A    between atoms: N_13  and  C_14
REMARK    6  A    between atoms: C_14  and  C_15
REMARK    7  A    between atoms: C_14  and  C_16
REMARK                            x       y       z     vdW  Elec       q    Type
REMARK                         _______ _______ _______ _____ _____    ______ ____
ROOT
ATOM      1  C   UNL     1       5.664  12.593  18.606  0.00  0.00    +0.000 A 
ATOM      2  N   UNL     1       4.957  12.518  19.732  0.00  0.00    +0.000 NA
ATOM      3  C   UNL     1       5.021  13.567  20.535  0.00  0.00    +0.000 A 
ATOM      4  N   UNL     1       4.271  13.523  21.694  0.00  0.00    +0.000 N 
ATOM      5  N   UNL     1       5.744  14.646  20.296  0.00  0.00    +0.000 NA
ATOM      6  C   UNL     1       6.427  14.642  19.158  0.00  0.00    +0.000 A 
ATOM      7  N   UNL     1       6.434  13.636  18.288  0.00  0.00    +0.000 NA
ATOM      8  N   UNL     1       7.170  15.759  18.848  0.00  0.00    +0.000 N 
ATOM      9  H   UNL     1       3.700  12.706  21.790  0.00  0.00    +0.000 HD
ATOM     10  H   UNL     1       7.623  15.709  17.949  0.00  0.00    +0.000 HD
ENDROOT
BRANCH   8  11
ATOM     11  C   UNL     1       7.219  16.914  19.716  0.00  0.00    +0.000 C 
ATOM     12  C   UNL     1       8.634  17.484  19.733  0.00  0.00    +0.000 C 
ATOM     13  C   UNL     1       6.239  17.982  19.240  0.00  0.00    +0.000 C 
ENDBRANCH   8  11
BRANCH   4  14
ATOM     14  N   UNL     1       4.286  14.576  22.571  0.00  0.00    +0.000 NA
ATOM     15  N   UNL     1       4.248  15.389  23.336  0.00  0.00    +0.000 NA
ENDBRANCH   4  14
BRANCH   1  16
ATOM     16  N   UNL     1       5.733  11.524  17.789  0.00  0.00    +0.000 NA
BRANCH  16  18
ATOM     17  C   UNL     1       5.923  11.570  15.271  0.00  0.00    +0.000 C 
ATOM     18  C   UNL     1       6.630  11.584  16.623  0.00  0.00    +0.000 C 
ENDBRANCH  16  18
ENDBRANCH   1  16
TORSDOF 4
ENDMDL
MODEL 2
REMARK minimizedAffinity -4.57100058
REMARK minimizedRMSD -1
REMARK  Name = 
REMARK  7 active torsions:
REMARK  status: ('A' for Active; 'I' for Inactive)
REMARK    1  A    between atoms: C_1  and  C_2
REMARK    2  A    between atoms: C_2  and  N_3
REMARK    3  A    between atoms: N_3  and  C_4
REMARK    4  A    between atoms: N_7  and  N_8
REMARK    5  A    between atoms: N_13  and  C_14
REMARK    6  A    between atoms: C_14  and  C_15
REMARK    7  A    between atoms: C_14  and  C_16
REMARK                            x       y       z     vdW  Elec       q    Type
REMARK                         _______ _______ _______ _____ _____    ______ ____
ROOT
ATOM      1  C   UNL     1       5.700  12.361  18.369  0.00  0.00    +0.000 A 
ATOM      2  N   UNL     1       6.591  13.270  17.976  0.00  0.00    +0.000 NA
ATOM      3  C   UNL     1       6.751  14.315  18.771  0.00  0.00    +0.000 A 
ATOM      4  N   UNL     1       7.692  15.255  18.399  0.00  0.00    +0.000 N 
ATOM      5  N   UNL     1       6.079  14.510  19.892  0.00  0.00    +0.000 NA
ATOM      6  C   UNL     1       5.204  13.564  20.211  0.00  0.00    +0.000 A 
ATOM      7  N   UNL     1       4.965  12.481  19.477  0.00  0.00    +0.000 NA
ATOM      8  N   UNL     1       4.502  13.705  21.387  0.00  0.00    +0.000 N 
ATOM      9  H   UNL     1       8.209  15.022  17.573  0.00  0.00    +0.000 HD
ATOM     10  H   UNL     1       3.891  12.930  21.591  0.00  0.00    +0.000 HD
ENDROOT
BRANCH   8  11
ATOM     11  C   UNL     1       4.696  14.837  22.266  0.00  0.00    +0.000 C 
ATOM     12  C   UNL     1       3.344  15.347  22.753  0.00  0.00    +0.000 C 
ATOM     13  C   UNL     1       5.558  14.442  23.461  0.00  0.00    +0.000 C 
ENDBRANCH   8  11
BRANCH   4  14
ATOM     14  N   UNL     1       7.914  16.362  19.177  0.00  0.00    +0.000 NA
ATOM     15  N   UNL     1       8.177  17.252  19.797  0.00  0.00    +0.000 NA
ENDBRANCH   4  14
BRANCH   1  16
ATOM     16  N   UNL     1       5.406  11.324  17.562  0.00  0.00    +0.000 NA
BRANCH  16  18
ATOM     17  C   UNL     1       3.154  11.502  16.432  0.00  0.00    +0.000 C 
ATOM     18  C   UNL     1       4.672  11.589  16.312  0.00  0.00    +0.000 C 
ENDBRANCH  16  18
ENDBRANCH   1  16
TORSDOF 4
ENDMDL
MODEL 3
REMARK minimizedAffinity -4.36473083
REMARK minimizedRMSD -1
REMARK  Name = 
REMARK  7 active torsions:
REMARK  status: ('A' for Active; 'I' for Inactive)
REMARK    1  A    between atoms: C_1  and  C_2
REMARK    2  A    between atoms: C_2  and  N_3
REMARK    3  A    between atoms: N_3  and  C_4
REMARK    4  A    between atoms: N_7  and  N_8
REMARK    5  A    between atoms: N_13  and  C_14
REMARK    6  A    between atoms: C_14  and  C_15
REMARK    7  A    between atoms: C_14  and  C_16
REMARK                            x       y       z     vdW  Elec       q    Type
REMARK                         _______ _______ _______ _____ _____    ______ ____
ROOT
ATOM      1  C   UNL     1      14.363   2.813  45.595  0.00  0.00    +0.000 A 
ATOM      2  N   UNL     1      15.555   3.243  46.006  0.00  0.00    +0.000 NA
ATOM      3  C   UNL     1      15.561   4.010  47.084  0.00  0.00    +0.000 A 
ATOM      4  N   UNL     1      16.788   4.441  47.546  0.00  0.00    +0.000 N 
ATOM      5  N   UNL     1      14.477   4.377  47.744  0.00  0.00    +0.000 NA
ATOM      6  C   UNL     1      13.328   3.915  47.268  0.00  0.00    +0.000 A 
ATOM      7  N   UNL     1      13.215   3.145  46.189  0.00  0.00    +0.000 NA
ATOM      8  N   UNL     1      12.172   4.243  47.941  0.00  0.00    +0.000 N 
ATOM      9  H   UNL     1      17.574   4.082  47.039  0.00  0.00    +0.000 HD
ATOM     10  H   UNL     1      11.343   3.821  47.555  0.00  0.00    +0.000 HD
ENDROOT
BRANCH   8  11
ATOM     11  C   UNL     1      12.184   5.061  49.133  0.00  0.00    +0.000 C 
ATOM     12  C   UNL     1      11.033   6.060  49.082  0.00  0.00    +0.000 C 
ATOM     13  C   UNL     1      12.055   4.190  50.379  0.00  0.00    +0.000 C 
ENDBRANCH   8  11
BRANCH   4  14
ATOM     14  N   UNL     1      16.871   5.235  48.660  0.00  0.00    +0.000 NA
ATOM     15  N   UNL     1      17.013   5.907  49.540  0.00  0.00    +0.000 NA
ENDBRANCH   4  14
BRANCH   1  16
ATOM     16  N   UNL     1      14.266   2.117  44.445  0.00  0.00    +0.000 NA
BRANCH  16  18
ATOM     17  C   UNL     1      14.833  -0.219  45.220  0.00  0.00    +0.000 C 
ATOM     18  C   UNL     1      13.850   0.705  44.510  0.00  0.00    +0.000 C 
ENDBRANCH  16  18
ENDBRANCH   1  16
TORSDOF 4
ENDMDL
MODEL 4
REMARK minimizedAffinity -4.35396051
REMARK minimizedRMSD -1
REMARK  Name = 
REMARK  7 active torsions:
REMARK  status: ('A' for Active; 'I' for Inactive)
REMARK    1  A    between atoms: C_1  and  C_2
REMARK    2  A    between atoms: C_2  and  N_3
REMARK    3  A    between atoms: N_3  and  C_4
REMARK    4  A    between atoms: N_7  and  N_8
REMARK    5  A    between atoms: N_13  and  C_14
REMARK    6  A    between atoms: C_14  and  C_15
REMARK    7  A    between atoms: C_14  and  C_16
REMARK                            x       y       z     vdW  Elec       q    Type
REMARK                         _______ _______ _______ _____ _____    ______ ____
ROOT
ATOM      1  C   UNL     1       5.182  14.275  21.385  0.00  0.00    +0.000 A 
ATOM      2  N   UNL     1       5.009  13.132  20.723  0.00  0.00    +0.000 NA
ATOM      3  C   UNL     1       5.547  13.067  19.516  0.00  0.00    +0.000 A 
ATOM      4  N   UNL     1       5.407  11.880  18.825  0.00  0.00    +0.000 N 
ATOM      5  N   UNL     1       6.209  14.055  18.941  0.00  0.00    +0.000 NA
ATOM      6  C   UNL     1       6.331  15.163  19.660  0.00  0.00    +0.000 A 
ATOM      7  N   UNL     1       5.823  15.330  20.878  0.00  0.00    +0.000 NA
ATOM      8  N   UNL     1       7.041  16.210  19.116  0.00  0.00    +0.000 N 
ATOM      9  H   UNL     1       4.948  11.152  19.336  0.00  0.00    +0.000 HD
ATOM     10  H   UNL     1       7.136  17.001  19.733  0.00  0.00    +0.000 HD
ENDROOT
BRANCH   8  11
ATOM     11  C   UNL     1       7.648  16.128  17.806  0.00  0.00    +0.000 C 
ATOM     12  C   UNL     1       6.756  16.824  16.783  0.00  0.00    +0.000 C 
ATOM     13  C   UNL     1       9.027  16.779  17.815  0.00  0.00    +0.000 C 
ENDBRANCH   8  11
BRANCH   4  14
ATOM     14  N   UNL     1       5.941  11.740  17.570  0.00  0.00    +0.000 NA
ATOM     15  N   UNL     1       6.406  11.551  16.573  0.00  0.00    +0.000 NA
ENDBRANCH   4  14
BRANCH   1  16
ATOM     16  N   UNL     1       4.576  14.454  22.575  0.00  0.00    +0.000 NA
BRANCH  16  18
ATOM     17  C   UNL     1       3.810  16.443  23.930  0.00  0.00    +0.000 C 
ATOM     18  C   UNL     1       3.601  15.550  22.711  0.00  0.00    +0.000 C 
ENDBRANCH  16  18
ENDBRANCH   1  16
TORSDOF 4
ENDMDL
MODEL 5
REMARK minimizedAffinity -4.35364532
REMARK minimizedRMSD -1
REMARK  Name = 
REMARK  7 active torsions:
REMARK  status: ('A' for Active; 'I' for Inactive)
REMARK    1  A    between atoms: C_1  and  C_2
REMARK    2  A    between atoms: C_2  and  N_3
REMARK    3  A    between atoms: N_3  and  C_4
REMARK    4  A    between atoms: N_7  and  N_8
REMARK    5  A    between atoms: N_13  and  C_14
REMARK    6  A    between atoms: C_14  and  C_15
REMARK    7  A    between atoms: C_14  and  C_16
REMARK                            x       y       z     vdW  Elec       q    Type
REMARK                         _______ _______ _______ _____ _____    ______ ____
ROOT
ATOM      1  C   UNL     1       6.176  -5.014  35.332  0.00  0.00    +0.000 A 
ATOM      2  N   UNL     1       5.680  -6.245  35.457  0.00  0.00    +0.000 NA
ATOM      3  C   UNL     1       5.442  -6.897  34.331  0.00  0.00    +0.000 A 
ATOM      4  N   UNL     1       4.958  -8.185  34.437  0.00  0.00    +0.000 N 
ATOM      5  N   UNL     1       5.643  -6.400  33.124  0.00  0.00    +0.000 NA
ATOM      6  C   UNL     1       6.130  -5.166  33.083  0.00  0.00    +0.000 A 
ATOM      7  N   UNL     1       6.397  -4.426  34.155  0.00  0.00    +0.000 NA
ATOM      8  N   UNL     1       6.388  -4.615  31.848  0.00  0.00    +0.000 N 
ATOM      9  H   UNL     1       4.882  -8.526  35.376  0.00  0.00    +0.000 HD
ATOM     10  H   UNL     1       6.801  -3.697  31.890  0.00  0.00    +0.000 HD
ENDROOT
BRANCH   8  11
ATOM     11  C   UNL     1       6.149  -5.339  30.619  0.00  0.00    +0.000 C 
ATOM     12  C   UNL     1       5.243  -4.518  29.707  0.00  0.00    +0.000 C 
ATOM     13  C   UNL     1       7.466  -5.634  29.907  0.00  0.00    +0.000 C 
ENDBRANCH   8  11
BRANCH   4  14
ATOM     14  N   UNL     1       4.690  -8.922  33.313  0.00  0.00    +0.000 NA
ATOM     15  N   UNL     1       4.392  -9.516  32.416  0.00  0.00    +0.000 NA
ENDBRANCH   4  14
BRANCH   1  16
ATOM     16  N   UNL     1       6.346  -4.250  36.428  0.00  0.00    +0.000 NA
BRANCH  16  18
ATOM     17  C   UNL     1       4.572  -3.620  38.112  0.00  0.00    +0.000 C 
ATOM     18  C   UNL     1       5.281  -3.302  36.799  0.00  0.00    +0.000 C 
ENDBRANCH  16  18
ENDBRANCH   1  16
TORSDOF 4
ENDMDL
MODEL 6
REMARK minimizedAffinity -4.18931961
REMARK minimizedRMSD -1
REMARK  Name = 
REMARK  7 active torsions:
REMARK  status: ('A' for Active; 'I' for Inactive)
REMARK    1  A    between atoms: C_1  and  C_2
REMARK    2  A    between atoms: C_2  and  N_3
REMARK    3  A    between atoms: N_3  and  C_4
REMARK    4  A    between atoms: N_7  and  N_8
REMARK    5  A    between atoms: N_13  and  C_14
REMARK    6  A    between atoms: C_14  and  C_15
REMARK    7  A    between atoms: C_14  and  C_16
REMARK                            x       y       z     vdW  Elec       q    Type
REMARK                         _______ _______ _______ _____ _____    ______ ____
ROOT
ATOM      1  C   UNL     1      14.862   2.706  45.787  0.00  0.00    +0.000 A 
ATOM      2  N   UNL     1      13.621   2.923  46.219  0.00  0.00    +0.000 NA
ATOM      3  C   UNL     1      13.490   3.779  47.219  0.00  0.00    +0.000 A 
ATOM      4  N   UNL     1      12.209   4.043  47.661  0.00  0.00    +0.000 N 
ATOM      5  N   UNL     1      14.497   4.397  47.809  0.00  0.00    +0.000 NA
ATOM      6  C   UNL     1      15.703   4.122  47.328  0.00  0.00    +0.000 A 
ATOM      7  N   UNL     1      15.941   3.273  46.331  0.00  0.00    +0.000 NA
ATOM      8  N   UNL     1      16.783   4.766  47.888  0.00  0.00    +0.000 N 
ATOM      9  H   UNL     1      11.485   3.590  47.136  0.00  0.00    +0.000 HD
ATOM     10  H   UNL     1      17.662   4.548  47.445  0.00  0.00    +0.000 HD
ENDROOT
BRANCH   8  11
ATOM     11  C   UNL     1      16.635   5.720  48.965  0.00  0.00    +0.000 C 
ATOM     12  C   UNL     1      17.775   5.549  49.963  0.00  0.00    +0.000 C 
ATOM     13  C   UNL     1      16.635   7.144  48.421  0.00  0.00    +0.000 C 
ENDBRANCH   8  11
BRANCH   4  14
ATOM     14  N   UNL     1      11.997   4.922  48.691  0.00  0.00    +0.000 NA
ATOM     15  N   UNL     1      11.769   5.583  49.561  0.00  0.00    +0.000 NA
ENDBRANCH   4  14
BRANCH   1  16
ATOM     16  N   UNL     1      15.086   1.770  44.844  0.00  0.00    +0.000 NA
BRANCH  16  18
ATOM     17  C   UNL     1      15.448  -0.700  45.226  0.00  0.00    +0.000 C 
ATOM     18  C   UNL     1      14.465   0.445  45.005  0.00  0.00    +0.000 C 
ENDBRANCH  16  18
ENDBRANCH   1  16
TORSDOF 4
ENDMDL
MODEL 7
REMARK minimizedAffinity -4.18548059
REMARK minimizedRMSD -1
REMARK  Name = 
REMARK  7 active torsions:
REMARK  status: ('A' for Active; 'I' for Inactive)
REMARK    1  A    between atoms: C_1  and  C_2
REMARK    2  A    between atoms: C_2  and  N_3
REMARK    3  A    between atoms: N_3  and  C_4
REMARK    4  A    between atoms: N_7  and  N_8
REMARK    5  A    between atoms: N_13  and  C_14
REMARK    6  A    between atoms: C_14  and  C_15
REMARK    7  A    between atoms: C_14  and  C_16
REMARK                            x       y       z     vdW  Elec       q    Type
REMARK                         _______ _______ _______ _____ _____    ______ ____
ROOT
ATOM      1  C   UNL     1       6.046  -5.137  33.409  0.00  0.00    +0.000 A 
ATOM      2  N   UNL     1       6.448  -4.526  34.522  0.00  0.00    +0.000 NA
ATOM      3  C   UNL     1       6.348  -5.223  35.642  0.00  0.00    +0.000 A 
ATOM      4  N   UNL     1       6.788  -4.620  36.803  0.00  0.00    +0.000 N 
ATOM      5  N   UNL     1       5.865  -6.450  35.716  0.00  0.00    +0.000 NA
ATOM      6  C   UNL     1       5.477  -6.987  34.567  0.00  0.00    +0.000 A 
ATOM      7  N   UNL     1       5.531  -6.369  33.390  0.00  0.00    +0.000 NA
ATOM      8  N   UNL     1       4.997  -8.277  34.587  0.00  0.00    +0.000 N 
ATOM      9  H   UNL     1       7.197  -3.714  36.674  0.00  0.00    +0.000 HD
ATOM     10  H   UNL     1       4.766  -8.640  33.676  0.00  0.00    +0.000 HD
ENDROOT
BRANCH   8  11
ATOM     11  C   UNL     1       4.911  -9.046  35.809  0.00  0.00    +0.000 C 
ATOM     12  C   UNL     1       3.550  -9.730  35.891  0.00  0.00    +0.000 C 
ATOM     13  C   UNL     1       6.018 -10.093  35.861  0.00  0.00    +0.000 C 
ENDBRANCH   8  11
BRANCH   4  14
ATOM     14  N   UNL     1       6.718  -5.283  38.001  0.00  0.00    +0.000 NA
ATOM     15  N   UNL     1       6.583  -5.795  38.984  0.00  0.00    +0.000 NA
ENDBRANCH   4  14
BRANCH   1  16
ATOM     16  N   UNL     1       6.019  -4.456  32.247  0.00  0.00    +0.000 NA
BRANCH  16  18
ATOM     17  C   UNL     1       7.172  -5.474  30.243  0.00  0.00    +0.000 C 
ATOM     18  C   UNL     1       5.868  -5.211  30.991  0.00  0.00    +0.000 C 
ENDBRANCH  16  18
ENDBRANCH   1  16
TORSDOF 4
ENDMDL
MODEL 8
REMARK minimizedAffinity -4.0951395
REMARK minimizedRMSD -1
REMARK  Name = 
REMARK  7 active torsions:
REMARK  status: ('A' for Active; 'I' for Inactive)
REMARK    1  A    between atoms: C_1  and  C_2
REMARK    2  A    between atoms: C_2  and  N_3
REMARK    3  A    between atoms: N_3  and  C_4
REMARK    4  A    between atoms: N_7  and  N_8
REMARK    5  A    between atoms: N_13  and  C_14
REMARK    6  A    between atoms: C_14  and  C_15
REMARK    7  A    between atoms: C_14  and  C_16
REMARK                            x       y       z     vdW  Elec       q    Type
REMARK                         _______ _______ _______ _____ _____    ______ ____
ROOT
ATOM      1  C   UNL     1       5.861  -4.639  34.985  0.00  0.00    +0.000 A 
ATOM      2  N   UNL     1       6.685  -4.953  35.983  0.00  0.00    +0.000 NA
ATOM      3  C   UNL     1       6.147  -5.014  37.190  0.00  0.00    +0.000 A 
ATOM      4  N   UNL     1       6.977  -5.369  38.234  0.00  0.00    +0.000 N 
ATOM      5  N   UNL     1       4.877  -4.766  37.453  0.00  0.00    +0.000 NA
ATOM      6  C   UNL     1       4.122  -4.451  36.408  0.00  0.00    +0.000 A 
ATOM      7  N   UNL     1       4.568  -4.358  35.158  0.00  0.00    +0.000 NA
ATOM      8  N   UNL     1       2.783  -4.216  36.627  0.00  0.00    +0.000 N 
ATOM      9  H   UNL     1       7.913  -5.601  37.963  0.00  0.00    +0.000 HD
ATOM     10  H   UNL     1       2.260  -4.030  35.786  0.00  0.00    +0.000 HD
ENDROOT
BRANCH   8  11
ATOM     11  C   UNL     1       2.193  -4.306  37.944  0.00  0.00    +0.000 C 
ATOM     12  C   UNL     1       2.009  -2.907  38.522  0.00  0.00    +0.000 C 
ATOM     13  C   UNL     1       0.844  -5.017  37.877  0.00  0.00    +0.000 C 
ENDBRANCH   8  11
BRANCH   4  14
ATOM     14  N   UNL     1       6.488  -5.455  39.512  0.00  0.00    +0.000 NA
ATOM     15  N   UNL     1       6.083  -5.441  40.553  0.00  0.00    +0.000 NA
ENDBRANCH   4  14
BRANCH   1  16
ATOM     16  N   UNL     1       6.354  -4.455  33.745  0.00  0.00    +0.000 NA
BRANCH  16  18
ATOM     17  C   UNL     1       6.405  -5.317  31.371  0.00  0.00    +0.000 C 
ATOM     18  C   UNL     1       5.575  -4.945  32.596  0.00  0.00    +0.000 C 
ENDBRANCH  16  18
ENDBRANCH   1  16
TORSDOF 4
ENDMDL
MODEL 9
REMARK minimizedAffinity -4.07960987
REMARK minimizedRMSD -1
REMARK  Name = 
REMARK  7 active torsions:
REMARK  status: ('A' for Active; 'I' for Inactive)
REMARK    1  A    between atoms: C_1  and  C_2
REMARK    2  A    between atoms: C_2  and  N_3
REMARK    3  A    between atoms: N_3  and  C_4
REMARK    4  A    between atoms: N_7  and  N_8
REMARK    5  A    between atoms: N_13  and  C_14
REMARK    6  A    between atoms: C_14  and  C_15
REMARK    7  A    between atoms: C_14  and  C_16
REMARK                            x       y       z     vdW  Elec       q    Type
REMARK                         _______ _______ _______ _____ _____    ______ ____
ROOT
ATOM      1  C   UNL     1       8.010  17.213  19.435  0.00  0.00    +0.000 A 
ATOM      2  N   UNL     1       8.015  16.150  18.632  0.00  0.00    +0.000 NA
ATOM      3  C   UNL     1       7.186  15.170  18.952  0.00  0.00    +0.000 A 
ATOM      4  N   UNL     1       7.152  14.072  18.116  0.00  0.00    +0.000 N 
ATOM      5  N   UNL     1       6.391  15.180  20.007  0.00  0.00    +0.000 NA
ATOM      6  C   UNL     1       6.450  16.270  20.763  0.00  0.00    +0.000 A 
ATOM      7  N   UNL     1       7.253  17.305  20.530  0.00  0.00    +0.000 NA
ATOM      8  N   UNL     1       5.616  16.342  21.856  0.00  0.00    +0.000 N 
ATOM      9  H   UNL     1       7.732  14.149  17.303  0.00  0.00    +0.000 HD
ATOM     10  H   UNL     1       5.677  17.214  22.357  0.00  0.00    +0.000 HD
ENDROOT
BRANCH   8  11
ATOM     11  C   UNL     1       4.693  15.280  22.190  0.00  0.00    +0.000 C 
ATOM     12  C   UNL     1       5.363  14.301  23.148  0.00  0.00    +0.000 C 
ATOM     13  C   UNL     1       3.433  15.850  22.833  0.00  0.00    +0.000 C 
ENDBRANCH   8  11
BRANCH   4  14
ATOM     14  N   UNL     1       6.314  13.021  18.383  0.00  0.00    +0.000 NA
ATOM     15  N   UNL     1       5.697  12.124  18.634  0.00  0.00    +0.000 NA
ENDBRANCH   4  14
BRANCH   1  16
ATOM     16  N   UNL     1       8.900  18.204  19.235  0.00  0.00    +0.000 NA
BRANCH  16  18
ATOM     17  C   UNL     1      10.300  19.185  21.094  0.00  0.00    +0.000 C 
ATOM     18  C   UNL     1       9.026  19.256  20.258  0.00  0.00    +0.000 C 
ENDBRANCH  16  18
ENDBRANCH   1  16
TORSDOF 4
ENDMDL
