MODEL 1
REMARK minimizedAffinity -4.22668028
REMARK minimizedRMSD -1
REMARK  Name = 
REMARK  7 active torsions:
REMARK  status: ('A' for Active; 'I' for Inactive)
REMARK    1  A    between atoms: N_2  and  N_3
REMARK    2  A    between atoms: C_6  and  N_7
REMARK    3  A    between atoms: N_7  and  C_8
REMARK    4  A    between atoms: C_8  and  C_9
REMARK    5  A    between atoms: C_8  and  C_10
REMARK    6  A    between atoms: C_12  and  S_14
REMARK    7  A    between atoms: S_14  and  C_15
REMARK                            x       y       z     vdW  Elec       q    Type
REMARK                         _______ _______ _______ _____ _____    ______ ____
ROOT
ATOM      1  N   UNL     1       4.463  13.183  21.420  0.00  0.00    +0.000 N 
ATOM      2  C   UNL     1       5.015  13.298  20.162  0.00  0.00    +0.000 A 
ATOM      3  N   UNL     1       5.932  14.229  19.981  0.00  0.00    +0.000 NA
ATOM      4  C   UNL     1       6.537  14.274  18.803  0.00  0.00    +0.000 A 
ATOM      5  N   UNL     1       6.202  13.485  17.794  0.00  0.00    +0.000 NA
ATOM      6  C   UNL     1       5.225  12.612  18.049  0.00  0.00    +0.000 A 
ATOM      7  N   UNL     1       4.622  12.431  19.231  0.00  0.00    +0.000 NA
ATOM      8  H   UNL     1       4.244  12.257  21.722  0.00  0.00    +0.000 HD
ENDROOT
BRANCH   1  10
ATOM      9  N   UNL     1       4.286  15.195  22.872  0.00  0.00    +0.000 NA
ATOM     10  N   UNL     1       4.280  14.295  22.211  0.00  0.00    +0.000 NA
ENDBRANCH   1  10
BRANCH   6  11
ATOM     11  S   UNL     1       4.722  11.626  16.636  0.00  0.00    +0.000 S 
ATOM     12  C   UNL     1       6.185  11.639  15.572  0.00  0.00    +0.000 C 
ENDBRANCH   6  11
BRANCH   4  13
ATOM     13  N   UNL     1       7.537  15.146  18.580  0.00  0.00    +0.000 NA
BRANCH  13  14
ATOM     14  C   UNL     1       7.324  16.584  18.869  0.00  0.00    +0.000 C 
ATOM     15  C   UNL     1       8.634  17.378  18.947  0.00  0.00    +0.000 C 
ATOM     16  C   UNL     1       6.322  17.245  17.915  0.00  0.00    +0.000 C 
ENDBRANCH  13  14
ENDBRANCH   4  13
TORSDOF 4
ENDMDL
MODEL 2
REMARK minimizedAffinity -4.20732975
REMARK minimizedRMSD -1
REMARK  Name = 
REMARK  7 active torsions:
REMARK  status: ('A' for Active; 'I' for Inactive)
REMARK    1  A    between atoms: N_2  and  N_3
REMARK    2  A    between atoms: C_6  and  N_7
REMARK    3  A    between atoms: N_7  and  C_8
REMARK    4  A    between atoms: C_8  and  C_9
REMARK    5  A    between atoms: C_8  and  C_10
REMARK    6  A    between atoms: C_12  and  S_14
REMARK    7  A    between atoms: S_14  and  C_15
REMARK                            x       y       z     vdW  Elec       q    Type
REMARK                         _______ _______ _______ _____ _____    ______ ____
ROOT
ATOM      1  N   UNL     1       4.475  13.090  21.284  0.00  0.00    +0.000 N 
ATOM      2  C   UNL     1       4.858  13.270  19.971  0.00  0.00    +0.000 A 
ATOM      3  N   UNL     1       5.993  13.903  19.748  0.00  0.00    +0.000 NA
ATOM      4  C   UNL     1       6.413  13.987  18.494  0.00  0.00    +0.000 A 
ATOM      5  N   UNL     1       5.707  13.536  17.469  0.00  0.00    +0.000 NA
ATOM      6  C   UNL     1       4.543  12.961  17.784  0.00  0.00    +0.000 A 
ATOM      7  N   UNL     1       4.082  12.749  19.023  0.00  0.00    +0.000 NA
ATOM      8  H   UNL     1       4.011  12.232  21.494  0.00  0.00    +0.000 HD
ENDROOT
BRANCH   1  10
ATOM      9  N   UNL     1       5.017  14.688  23.112  0.00  0.00    +0.000 NA
ATOM     10  N   UNL     1       4.773  14.038  22.238  0.00  0.00    +0.000 NA
ENDBRANCH   1  10
BRANCH   6  11
ATOM     11  S   UNL     1       3.560  12.452  16.372  0.00  0.00    +0.000 S 
ATOM     12  C   UNL     1       1.942  12.087  17.094  0.00  0.00    +0.000 C 
ENDBRANCH   6  11
BRANCH   4  13
ATOM     13  N   UNL     1       7.602  14.548  18.205  0.00  0.00    +0.000 NA
BRANCH  13  14
ATOM     14  C   UNL     1       7.652  15.972  17.800  0.00  0.00    +0.000 C 
ATOM     15  C   UNL     1       7.916  16.918  18.978  0.00  0.00    +0.000 C 
ATOM     16  C   UNL     1       8.622  16.232  16.642  0.00  0.00    +0.000 C 
ENDBRANCH  13  14
ENDBRANCH   4  13
TORSDOF 4
ENDMDL
MODEL 3
REMARK minimizedAffinity -4.18131495
REMARK minimizedRMSD -1
REMARK  Name = 
REMARK  7 active torsions:
REMARK  status: ('A' for Active; 'I' for Inactive)
REMARK    1  A    between atoms: N_2  and  N_3
REMARK    2  A    between atoms: C_6  and  N_7
REMARK    3  A    between atoms: N_7  and  C_8
REMARK    4  A    between atoms: C_8  and  C_9
REMARK    5  A    between atoms: C_8  and  C_10
REMARK    6  A    between atoms: C_12  and  S_14
REMARK    7  A    between atoms: S_14  and  C_15
REMARK                            x       y       z     vdW  Elec       q    Type
REMARK                         _______ _______ _______ _____ _____    ______ ____
ROOT
ATOM      1  N   UNL     1       6.709  13.417  19.199  0.00  0.00    +0.000 N 
ATOM      2  C   UNL     1       7.252  14.644  18.879  0.00  0.00    +0.000 A 
ATOM      3  N   UNL     1       7.283  15.563  19.825  0.00  0.00    +0.000 NA
ATOM      4  C   UNL     1       7.895  16.706  19.551  0.00  0.00    +0.000 A 
ATOM      5  N   UNL     1       8.397  16.983  18.358  0.00  0.00    +0.000 NA
ATOM      6  C   UNL     1       8.270  16.017  17.445  0.00  0.00    +0.000 A 
ATOM      7  N   UNL     1       7.752  14.801  17.655  0.00  0.00    +0.000 NA
ATOM      8  H   UNL     1       7.139  12.622  18.776  0.00  0.00    +0.000 HD
ENDROOT
BRANCH   1  10
ATOM      9  N   UNL     1       4.914  13.167  20.903  0.00  0.00    +0.000 NA
ATOM     10  N   UNL     1       5.664  13.324  20.090  0.00  0.00    +0.000 NA
ENDBRANCH   1  10
BRANCH   6  11
ATOM     11  S   UNL     1       8.866  16.457  15.810  0.00  0.00    +0.000 S 
ATOM     12  C   UNL     1       8.331  15.070  14.779  0.00  0.00    +0.000 C 
ENDBRANCH   6  11
BRANCH   4  13
ATOM     13  N   UNL     1       8.033  17.653  20.497  0.00  0.00    +0.000 NA
BRANCH  13  14
ATOM     14  C   UNL     1       9.310  17.751  21.244  0.00  0.00    +0.000 C 
ATOM     15  C   UNL     1       9.915  19.160  21.208  0.00  0.00    +0.000 C 
ATOM     16  C   UNL     1       9.208  17.218  22.678  0.00  0.00    +0.000 C 
ENDBRANCH  13  14
ENDBRANCH   4  13
TORSDOF 4
ENDMDL
MODEL 4
REMARK minimizedAffinity -4.11432219
REMARK minimizedRMSD -1
REMARK  Name = 
REMARK  7 active torsions:
REMARK  status: ('A' for Active; 'I' for Inactive)
REMARK    1  A    between atoms: N_2  and  N_3
REMARK    2  A    between atoms: C_6  and  N_7
REMARK    3  A    between atoms: N_7  and  C_8
REMARK    4  A    between atoms: C_8  and  C_9
REMARK    5  A    between atoms: C_8  and  C_10
REMARK    6  A    between atoms: C_12  and  S_14
REMARK    7  A    between atoms: S_14  and  C_15
REMARK                            x       y       z     vdW  Elec       q    Type
REMARK                         _______ _______ _______ _____ _____    ______ ____
ROOT
ATOM      1  N   UNL     1       3.385  -2.540  36.860  0.00  0.00    +0.000 N 
ATOM      2  C   UNL     1       4.393  -3.464  36.677  0.00  0.00    +0.000 A 
ATOM      3  N   UNL     1       4.839  -3.646  35.449  0.00  0.00    +0.000 NA
ATOM      4  C   UNL     1       5.874  -4.457  35.286  0.00  0.00    +0.000 A 
ATOM      5  N   UNL     1       6.416  -5.139  36.283  0.00  0.00    +0.000 NA
ATOM      6  C   UNL     1       5.864  -4.936  37.482  0.00  0.00    +0.000 A 
ATOM      7  N   UNL     1       4.880  -4.071  37.758  0.00  0.00    +0.000 NA
ATOM      8  H   UNL     1       3.422  -2.009  37.704  0.00  0.00    +0.000 HD
ENDROOT
BRANCH   1  10
ATOM      9  N   UNL     1       1.547  -2.267  35.207  0.00  0.00    +0.000 NA
ATOM     10  N   UNL     1       2.424  -2.350  35.893  0.00  0.00    +0.000 NA
ENDBRANCH   1  10
BRANCH   6  11
ATOM     11  S   UNL     1       6.549  -5.949  38.796  0.00  0.00    +0.000 S 
ATOM     12  C   UNL     1       5.877  -5.200  40.299  0.00  0.00    +0.000 C 
ENDBRANCH   6  11
BRANCH   4  13
ATOM     13  N   UNL     1       6.429  -4.624  34.071  0.00  0.00    +0.000 NA
BRANCH  13  14
ATOM     14  C   UNL     1       5.623  -5.227  32.983  0.00  0.00    +0.000 C 
ATOM     15  C   UNL     1       6.262  -5.051  31.600  0.00  0.00    +0.000 C 
ATOM     16  C   UNL     1       5.257  -6.692  33.251  0.00  0.00    +0.000 C 
ENDBRANCH  13  14
ENDBRANCH   4  13
TORSDOF 4
ENDMDL
MODEL 5
REMARK minimizedAffinity -4.05488968
REMARK minimizedRMSD -1
REMARK  Name = 
REMARK  7 active torsions:
REMARK  status: ('A' for Active; 'I' for Inactive)
REMARK    1  A    between atoms: N_2  and  N_3
REMARK    2  A    between atoms: C_6  and  N_7
REMARK    3  A    between atoms: N_7  and  C_8
REMARK    4  A    between atoms: C_8  and  C_9
REMARK    5  A    between atoms: C_8  and  C_10
REMARK    6  A    between atoms: C_12  and  S_14
REMARK    7  A    between atoms: S_14  and  C_15
REMARK                            x       y       z     vdW  Elec       q    Type
REMARK                         _______ _______ _______ _____ _____    ______ ____
ROOT
ATOM      1  N   UNL     1      32.322   7.908  28.435  0.00  0.00    +0.000 N 
ATOM      2  C   UNL     1      32.534   7.108  29.538  0.00  0.00    +0.000 A 
ATOM      3  N   UNL     1      32.863   7.702  30.669  0.00  0.00    +0.000 NA
ATOM      4  C   UNL     1      32.967   6.945  31.752  0.00  0.00    +0.000 A 
ATOM      5  N   UNL     1      32.833   5.628  31.723  0.00  0.00    +0.000 NA
ATOM      6  C   UNL     1      32.556   5.107  30.525  0.00  0.00    +0.000 A 
ATOM      7  N   UNL     1      32.343   5.797  29.398  0.00  0.00    +0.000 NA
ATOM      8  H   UNL     1      31.601   7.616  27.811  0.00  0.00    +0.000 HD
ENDROOT
BRANCH   1  10
ATOM      9  N   UNL     1      33.677   9.987  28.263  0.00  0.00    +0.000 NA
ATOM     10  N   UNL     1      33.049   9.064  28.257  0.00  0.00    +0.000 NA
ENDBRANCH   1  10
BRANCH   6  11
ATOM     11  S   UNL     1      32.481   3.314  30.496  0.00  0.00    +0.000 S 
ATOM     12  C   UNL     1      31.048   2.936  31.532  0.00  0.00    +0.000 C 
ENDBRANCH   6  11
BRANCH   4  13
ATOM     13  N   UNL     1      33.220   7.499  32.953  0.00  0.00    +0.000 NA
BRANCH  13  14
ATOM     14  C   UNL     1      34.543   7.284  33.585  0.00  0.00    +0.000 C 
ATOM     15  C   UNL     1      35.709   7.739  32.699  0.00  0.00    +0.000 C 
ATOM     16  C   UNL     1      34.638   7.884  34.993  0.00  0.00    +0.000 C 
ENDBRANCH  13  14
ENDBRANCH   4  13
TORSDOF 4
ENDMDL
MODEL 6
REMARK minimizedAffinity -4.03993845
REMARK minimizedRMSD -1
REMARK  Name = 
REMARK  7 active torsions:
REMARK  status: ('A' for Active; 'I' for Inactive)
REMARK    1  A    between atoms: N_2  and  N_3
REMARK    2  A    between atoms: C_6  and  N_7
REMARK    3  A    between atoms: N_7  and  C_8
REMARK    4  A    between atoms: C_8  and  C_9
REMARK    5  A    between atoms: C_8  and  C_10
REMARK    6  A    between atoms: C_12  and  S_14
REMARK    7  A    between atoms: S_14  and  C_15
REMARK                            x       y       z     vdW  Elec       q    Type
REMARK                         _______ _______ _______ _____ _____    ______ ____
ROOT
ATOM      1  N   UNL     1       9.335  15.568  15.684  0.00  0.00    +0.000 N 
ATOM      2  C   UNL     1       8.610  15.818  16.831  0.00  0.00    +0.000 A 
ATOM      3  N   UNL     1       7.525  15.096  17.035  0.00  0.00    +0.000 NA
ATOM      4  C   UNL     1       6.884  15.263  18.183  0.00  0.00    +0.000 A 
ATOM      5  N   UNL     1       7.242  16.170  19.080  0.00  0.00    +0.000 NA
ATOM      6  C   UNL     1       8.318  16.895  18.763  0.00  0.00    +0.000 A 
ATOM      7  N   UNL     1       9.081  16.734  17.674  0.00  0.00    +0.000 NA
ATOM      8  H   UNL     1      10.327  15.648  15.765  0.00  0.00    +0.000 HD
ENDROOT
BRANCH   1  10
ATOM      9  N   UNL     1       8.069  14.961  13.631  0.00  0.00    +0.000 NA
ATOM     10  N   UNL     1       8.702  15.185  14.523  0.00  0.00    +0.000 NA
ENDBRANCH   1  10
BRANCH   6  11
ATOM     11  S   UNL     1       8.720  18.183  19.946  0.00  0.00    +0.000 S 
ATOM     12  C   UNL     1       8.723  17.312  21.532  0.00  0.00    +0.000 C 
ENDBRANCH   6  11
BRANCH   4  13
ATOM     13  N   UNL     1       5.818  14.501  18.490  0.00  0.00    +0.000 NA
BRANCH  13  14
ATOM     14  C   UNL     1       6.012  13.278  19.304  0.00  0.00    +0.000 C 
ATOM     15  C   UNL     1       5.234  13.312  20.626  0.00  0.00    +0.000 C 
ATOM     16  C   UNL     1       5.736  11.988  18.522  0.00  0.00    +0.000 C 
ENDBRANCH  13  14
ENDBRANCH   4  13
TORSDOF 4
ENDMDL
MODEL 7
REMARK minimizedAffinity -3.96635032
REMARK minimizedRMSD -1
REMARK  Name = 
REMARK  7 active torsions:
REMARK  status: ('A' for Active; 'I' for Inactive)
REMARK    1  A    between atoms: N_2  and  N_3
REMARK    2  A    between atoms: C_6  and  N_7
REMARK    3  A    between atoms: N_7  and  C_8
REMARK    4  A    between atoms: C_8  and  C_9
REMARK    5  A    between atoms: C_8  and  C_10
REMARK    6  A    between atoms: C_12  and  S_14
REMARK    7  A    between atoms: S_14  and  C_15
REMARK                            x       y       z     vdW  Elec       q    Type
REMARK                         _______ _______ _______ _____ _____    ______ ____
ROOT
ATOM      1  N   UNL     1       9.934  18.810  19.720  0.00  0.00    +0.000 N 
ATOM      2  C   UNL     1       9.117  17.755  19.370  0.00  0.00    +0.000 A 
ATOM      3  N   UNL     1       8.293  17.291  20.289  0.00  0.00    +0.000 NA
ATOM      4  C   UNL     1       7.437  16.346  19.926  0.00  0.00    +0.000 A 
ATOM      5  N   UNL     1       7.435  15.807  18.716  0.00  0.00    +0.000 NA
ATOM      6  C   UNL     1       8.342  16.298  17.868  0.00  0.00    +0.000 A 
ATOM      7  N   UNL     1       9.181  17.311  18.116  0.00  0.00    +0.000 NA
ATOM      8  H   UNL     1      10.113  19.484  19.006  0.00  0.00    +0.000 HD
ENDROOT
BRANCH   1  10
ATOM      9  N   UNL     1      10.952  18.981  21.983  0.00  0.00    +0.000 NA
ATOM     10  N   UNL     1      10.420  18.925  21.003  0.00  0.00    +0.000 NA
ENDBRANCH   1  10
BRANCH   6  11
ATOM     11  S   UNL     1       8.386  15.480  16.272  0.00  0.00    +0.000 S 
ATOM     12  C   UNL     1       9.150  16.711  15.189  0.00  0.00    +0.000 C 
ENDBRANCH   6  11
BRANCH   4  13
ATOM     13  N   UNL     1       6.515  15.887  20.792  0.00  0.00    +0.000 NA
BRANCH  13  14
ATOM     14  C   UNL     1       5.390  15.065  20.285  0.00  0.00    +0.000 C 
ATOM     15  C   UNL     1       5.194  13.768  21.081  0.00  0.00    +0.000 C 
ATOM     16  C   UNL     1       4.081  15.853  20.160  0.00  0.00    +0.000 C 
ENDBRANCH  13  14
ENDBRANCH   4  13
TORSDOF 4
ENDMDL
MODEL 8
REMARK minimizedAffinity -3.95849824
REMARK minimizedRMSD -1
REMARK  Name = 
REMARK  7 active torsions:
REMARK  status: ('A' for Active; 'I' for Inactive)
REMARK    1  A    between atoms: N_2  and  N_3
REMARK    2  A    between atoms: C_6  and  N_7
REMARK    3  A    between atoms: N_7  and  C_8
REMARK    4  A    between atoms: C_8  and  C_9
REMARK    5  A    between atoms: C_8  and  C_10
REMARK    6  A    between atoms: C_12  and  S_14
REMARK    7  A    between atoms: S_14  and  C_15
REMARK                            x       y       z     vdW  Elec       q    Type
REMARK                         _______ _______ _______ _____ _____    ______ ____
ROOT
ATOM      1  N   UNL     1       8.030  16.291  19.389  0.00  0.00    +0.000 N 
ATOM      2  C   UNL     1       7.024  15.417  19.744  0.00  0.00    +0.000 A 
ATOM      3  N   UNL     1       6.887  14.320  19.024  0.00  0.00    +0.000 NA
ATOM      4  C   UNL     1       5.989  13.431  19.424  0.00  0.00    +0.000 A 
ATOM      5  N   UNL     1       5.185  13.638  20.455  0.00  0.00    +0.000 NA
ATOM      6  C   UNL     1       5.355  14.800  21.090  0.00  0.00    +0.000 A 
ATOM      7  N   UNL     1       6.293  15.715  20.817  0.00  0.00    +0.000 NA
ATOM      8  H   UNL     1       8.491  16.759  20.140  0.00  0.00    +0.000 HD
ENDROOT
BRANCH   1  10
ATOM      9  N   UNL     1       8.797  16.494  17.032  0.00  0.00    +0.000 NA
ATOM     10  N   UNL     1       8.386  16.453  18.069  0.00  0.00    +0.000 NA
ENDBRANCH   1  10
BRANCH   6  11
ATOM     11  S   UNL     1       4.185  15.098  22.418  0.00  0.00    +0.000 S 
ATOM     12  C   UNL     1       4.776  16.638  23.161  0.00  0.00    +0.000 C 
ENDBRANCH   6  11
BRANCH   4  13
ATOM     13  N   UNL     1       5.856  12.256  18.782  0.00  0.00    +0.000 NA
BRANCH  13  14
ATOM     14  C   UNL     1       5.627  12.252  17.317  0.00  0.00    +0.000 C 
ATOM     15  C   UNL     1       6.703  11.475  16.548  0.00  0.00    +0.000 C 
ATOM     16  C   UNL     1       4.217  11.790  16.932  0.00  0.00    +0.000 C 
ENDBRANCH  13  14
ENDBRANCH   4  13
TORSDOF 4
ENDMDL
MODEL 9
REMARK minimizedAffinity -3.95661712
REMARK minimizedRMSD -1
REMARK  Name = 
REMARK  7 active torsions:
REMARK  status: ('A' for Active; 'I' for Inactive)
REMARK    1  A    between atoms: N_2  and  N_3
REMARK    2  A    between atoms: C_6  and  N_7
REMARK    3  A    between atoms: N_7  and  C_8
REMARK    4  A    between atoms: C_8  and  C_9
REMARK    5  A    between atoms: C_8  and  C_10
REMARK    6  A    between atoms: C_12  and  S_14
REMARK    7  A    between atoms: S_14  and  C_15
REMARK                            x       y       z     vdW  Elec       q    Type
REMARK                         _______ _______ _______ _____ _____    ______ ____
ROOT
ATOM      1  N   UNL     1       5.224  11.986  18.549  0.00  0.00    +0.000 N 
ATOM      2  C   UNL     1       5.488  13.150  19.241  0.00  0.00    +0.000 A 
ATOM      3  N   UNL     1       6.037  14.146  18.573  0.00  0.00    +0.000 NA
ATOM      4  C   UNL     1       6.198  15.297  19.210  0.00  0.00    +0.000 A 
ATOM      5  N   UNL     1       5.905  15.456  20.491  0.00  0.00    +0.000 NA
ATOM      6  C   UNL     1       5.407  14.378  21.102  0.00  0.00    +0.000 A 
ATOM      7  N   UNL     1       5.125  13.206  20.521  0.00  0.00    +0.000 NA
ATOM      8  H   UNL     1       4.394  11.498  18.810  0.00  0.00    +0.000 HD
ENDROOT
BRANCH   1  10
ATOM      9  N   UNL     1       6.728  11.388  16.660  0.00  0.00    +0.000 NA
ATOM     10  N   UNL     1       6.052  11.573  17.530  0.00  0.00    +0.000 NA
ENDBRANCH   1  10
BRANCH   6  11
ATOM     11  S   UNL     1       5.115  14.590  22.860  0.00  0.00    +0.000 S 
ATOM     12  C   UNL     1       3.599  15.575  22.919  0.00  0.00    +0.000 C 
ENDBRANCH   6  11
BRANCH   4  13
ATOM     13  N   UNL     1       6.678  16.376  18.563  0.00  0.00    +0.000 NA
BRANCH  13  14
ATOM     14  C   UNL     1       8.144  16.558  18.447  0.00  0.00    +0.000 C 
ATOM     15  C   UNL     1       8.647  16.433  17.003  0.00  0.00    +0.000 C 
ATOM     16  C   UNL     1       8.641  17.850  19.106  0.00  0.00    +0.000 C 
ENDBRANCH  13  14
ENDBRANCH   4  13
TORSDOF 4
ENDMDL
