MODEL 1
REMARK minimizedAffinity -6.08590555
REMARK minimizedRMSD -1
REMARK  Name = 
REMARK  4 active torsions:
REMARK  status: ('A' for Active; 'I' for Inactive)
REMARK    1  A    between atoms: N_2  and  C_3
REMARK    2  A    between atoms: C_6  and  N_7
REMARK    3  A    between atoms: N_7  and  O_8
REMARK    4  A    between atoms: N_7  and  O_9
REMARK                            x       y       z     vdW  Elec       q    Type
REMARK                         _______ _______ _______ _____ _____    ______ ____
ROOT
ATOM      1  C   UNL     1       7.947  16.022  17.685  0.00  0.00    +0.000 C 
ATOM      2  C   UNL     1       7.306  14.937  18.091  0.00  0.00    +0.000 A 
ATOM      3  C   UNL     1       6.624  14.665  19.313  0.00  0.00    +0.000 A 
ATOM      4  C   UNL     1       5.915  13.526  19.431  0.00  0.00    +0.000 A 
ATOM      5  C   UNL     1       5.905  12.672  18.185  0.00  0.00    +0.000 A 
ATOM      6  C   UNL     1       6.787  12.591  17.144  0.00  0.00    +0.000 A 
ATOM      7  C   UNL     1       7.434  13.958  16.979  0.00  0.00    +0.000 A 
ATOM      8  N   UNL     1       7.987  14.468  15.932  0.00  0.00    +0.000 NA
ATOM      9  C   UNL     1       8.329  15.789  16.257  0.00  0.00    +0.000 C 
ATOM     10  O   UNL     1       8.828  16.590  15.525  0.00  0.00    +0.000 OA
ATOM     11  C   UNL     1       6.295  11.649  15.848  0.00  0.00    +0.000 C 
ATOM     12  C   UNL     1       4.987  12.138  15.135  0.00  0.00    +0.000 C 
ATOM     13  C   UNL     1       4.557  13.329  15.971  0.00  0.00    +0.000 C 
ATOM     14  C   UNL     1       4.608  12.423  17.487  0.00  0.00    +0.000 C 
ENDROOT
BRANCH   1  16
ATOM     15  O   UNL     1       9.446  17.279  18.648  0.00  0.00    +0.000 OA
ATOM     16  N   UNL     1       8.250  17.075  18.437  0.00  0.00    +0.000 NA
ENDBRANCH   1  16
BRANCH   4  17
ATOM     17  N   UNL     1       5.203  13.207  20.612  0.00  0.00    +0.000 N 
BRANCH  17  18
ATOM     18  O   UNL     1       5.638  13.517  21.905  0.00  0.00    +0.000 OA
ATOM     19  H   UNL     1       6.426  14.071  21.809  0.00  0.00    +0.000 HD
ENDBRANCH  17  18
BRANCH  17  20
ATOM     20  O   UNL     1       4.115  12.356  20.610  0.00  0.00    +0.000 OA
ATOM     21  H   UNL     1       3.942  12.287  21.573  0.00  0.00    +0.000 HD
ENDBRANCH  17  20
ENDBRANCH   4  17
TORSDOF 4
ENDMDL
MODEL 2
REMARK minimizedAffinity -5.94088697
REMARK minimizedRMSD -1
REMARK  Name = 
REMARK  4 active torsions:
REMARK  status: ('A' for Active; 'I' for Inactive)
REMARK    1  A    between atoms: N_2  and  C_3
REMARK    2  A    between atoms: C_6  and  N_7
REMARK    3  A    between atoms: N_7  and  O_8
REMARK    4  A    between atoms: N_7  and  O_9
REMARK                            x       y       z     vdW  Elec       q    Type
REMARK                         _______ _______ _______ _____ _____    ______ ____
ROOT
ATOM      1  C   UNL     1       5.619  14.439  20.029  0.00  0.00    +0.000 C 
ATOM      2  C   UNL     1       6.237  13.965  18.958  0.00  0.00    +0.000 A 
ATOM      3  C   UNL     1       6.061  12.739  18.252  0.00  0.00    +0.000 A 
ATOM      4  C   UNL     1       6.715  12.550  17.091  0.00  0.00    +0.000 A 
ATOM      5  C   UNL     1       7.554  13.727  16.653  0.00  0.00    +0.000 A 
ATOM      6  C   UNL     1       8.121  14.742  17.371  0.00  0.00    +0.000 A 
ATOM      7  C   UNL     1       7.241  14.997  18.586  0.00  0.00    +0.000 A 
ATOM      8  N   UNL     1       7.135  16.068  19.295  0.00  0.00    +0.000 NA
ATOM      9  C   UNL     1       6.114  15.838  20.229  0.00  0.00    +0.000 C 
ATOM     10  O   UNL     1       5.703  16.618  21.033  0.00  0.00    +0.000 OA
ATOM     11  C   UNL     1       8.813  15.972  16.468  0.00  0.00    +0.000 C 
ATOM     12  C   UNL     1       7.817  16.746  15.534  0.00  0.00    +0.000 C 
ATOM     13  C   UNL     1       6.505  16.010  15.736  0.00  0.00    +0.000 C 
ATOM     14  C   UNL     1       7.210  14.429  15.381  0.00  0.00    +0.000 C 
ENDROOT
BRANCH   1  16
ATOM     15  O   UNL     1       5.146  13.560  21.968  0.00  0.00    +0.000 OA
ATOM     16  N   UNL     1       4.783  13.763  20.809  0.00  0.00    +0.000 NA
ENDBRANCH   1  16
BRANCH   4  17
ATOM     17  N   UNL     1       6.568  11.362  16.334  0.00  0.00    +0.000 N 
BRANCH  17  18
ATOM     18  O   UNL     1       7.614  10.483  16.032  0.00  0.00    +0.000 OA
ATOM     19  H   UNL     1       8.387  10.788  16.528  0.00  0.00    +0.000 HD
ENDBRANCH  17  18
BRANCH  17  20
ATOM     20  O   UNL     1       5.415  11.074  15.630  0.00  0.00    +0.000 OA
ATOM     21  H   UNL     1       5.692  10.258  15.162  0.00  0.00    +0.000 HD
ENDBRANCH  17  20
ENDBRANCH   4  17
TORSDOF 4
ENDMDL
MODEL 3
REMARK minimizedAffinity -5.81424618
REMARK minimizedRMSD -1
REMARK  Name = 
REMARK  4 active torsions:
REMARK  status: ('A' for Active; 'I' for Inactive)
REMARK    1  A    between atoms: N_2  and  C_3
REMARK    2  A    between atoms: C_6  and  N_7
REMARK    3  A    between atoms: N_7  and  O_8
REMARK    4  A    between atoms: N_7  and  O_9
REMARK                            x       y       z     vdW  Elec       q    Type
REMARK                         _______ _______ _______ _____ _____    ______ ____
ROOT
ATOM      1  C   UNL     1       7.768  15.064  17.734  0.00  0.00    +0.000 C 
ATOM      2  C   UNL     1       7.064  15.256  18.839  0.00  0.00    +0.000 A 
ATOM      3  C   UNL     1       6.307  14.341  19.628  0.00  0.00    +0.000 A 
ATOM      4  C   UNL     1       5.797  14.752  20.804  0.00  0.00    +0.000 A 
ATOM      5  C   UNL     1       6.143  16.178  21.164  0.00  0.00    +0.000 A 
ATOM      6  C   UNL     1       6.483  17.245  20.381  0.00  0.00    +0.000 A 
ATOM      7  C   UNL     1       7.189  16.706  19.146  0.00  0.00    +0.000 A 
ATOM      8  N   UNL     1       8.018  17.307  18.363  0.00  0.00    +0.000 NA
ATOM      9  C   UNL     1       8.471  16.352  17.441  0.00  0.00    +0.000 C 
ATOM     10  O   UNL     1       9.281  16.529  16.582  0.00  0.00    +0.000 OA
ATOM     11  C   UNL     1       6.992  18.614  21.202  0.00  0.00    +0.000 C 
ATOM     12  C   UNL     1       8.283  18.420  22.072  0.00  0.00    +0.000 C 
ATOM     13  C   UNL     1       8.593  16.944  21.913  0.00  0.00    +0.000 C 
ATOM     14  C   UNL     1       6.967  16.438  22.383  0.00  0.00    +0.000 C 
ENDROOT
BRANCH   1  16
ATOM     15  O   UNL     1       7.069  13.960  15.988  0.00  0.00    +0.000 OA
ATOM     16  N   UNL     1       7.775  13.959  16.997  0.00  0.00    +0.000 NA
ENDBRANCH   1  16
BRANCH   4  17
ATOM     17  N   UNL     1       5.052  13.886  21.640  0.00  0.00    +0.000 N 
BRANCH  17  18
ATOM     18  O   UNL     1       5.240  13.766  23.022  0.00  0.00    +0.000 OA
ATOM     19  H   UNL     1       5.870  14.454  23.278  0.00  0.00    +0.000 HD
ENDBRANCH  17  18
BRANCH  17  20
ATOM     20  O   UNL     1       4.218  12.908  21.133  0.00  0.00    +0.000 OA
ATOM     21  H   UNL     1       3.955  12.453  21.961  0.00  0.00    +0.000 HD
ENDBRANCH  17  20
ENDBRANCH   4  17
TORSDOF 4
ENDMDL
MODEL 4
REMARK minimizedAffinity -5.77487087
REMARK minimizedRMSD -1
REMARK  Name = 
REMARK  4 active torsions:
REMARK  status: ('A' for Active; 'I' for Inactive)
REMARK    1  A    between atoms: N_2  and  C_3
REMARK    2  A    between atoms: C_6  and  N_7
REMARK    3  A    between atoms: N_7  and  O_8
REMARK    4  A    between atoms: N_7  and  O_9
REMARK                            x       y       z     vdW  Elec       q    Type
REMARK                         _______ _______ _______ _____ _____    ______ ____
ROOT
ATOM      1  C   UNL     1       4.024  13.142  16.167  0.00  0.00    +0.000 C 
ATOM      2  C   UNL     1       5.046  13.416  16.962  0.00  0.00    +0.000 A 
ATOM      3  C   UNL     1       6.326  13.972  16.670  0.00  0.00    +0.000 A 
ATOM      4  C   UNL     1       7.149  14.296  17.685  0.00  0.00    +0.000 A 
ATOM      5  C   UNL     1       6.566  14.052  19.057  0.00  0.00    +0.000 A 
ATOM      6  C   UNL     1       5.588  13.196  19.478  0.00  0.00    +0.000 A 
ATOM      7  C   UNL     1       4.616  13.001  18.323  0.00  0.00    +0.000 A 
ATOM      8  N   UNL     1       3.380  12.638  18.362  0.00  0.00    +0.000 NA
ATOM      9  C   UNL     1       2.893  12.716  17.049  0.00  0.00    +0.000 C 
ATOM     10  O   UNL     1       1.774  12.492  16.697  0.00  0.00    +0.000 OA
ATOM     11  C   UNL     1       5.095  13.383  21.068  0.00  0.00    +0.000 C 
ATOM     12  C   UNL     1       4.475  14.783  21.406  0.00  0.00    +0.000 C 
ATOM     13  C   UNL     1       4.618  15.552  20.106  0.00  0.00    +0.000 C 
ATOM     14  C   UNL     1       6.346  15.215  19.968  0.00  0.00    +0.000 C 
ENDROOT
BRANCH   1  16
ATOM     15  O   UNL     1       4.354  12.128  14.264  0.00  0.00    +0.000 OA
ATOM     16  N   UNL     1       4.040  13.172  14.839  0.00  0.00    +0.000 NA
ENDBRANCH   1  16
BRANCH   4  17
ATOM     17  N   UNL     1       8.425  14.868  17.460  0.00  0.00    +0.000 N 
BRANCH  17  18
ATOM     18  O   UNL     1       9.528  14.167  16.958  0.00  0.00    +0.000 OA
ATOM     19  H   UNL     1       9.208  13.291  16.701  0.00  0.00    +0.000 HD
ENDBRANCH  17  18
BRANCH  17  20
ATOM     20  O   UNL     1       8.764  16.123  17.929  0.00  0.00    +0.000 OA
ATOM     21  H   UNL     1       9.714  16.151  17.688  0.00  0.00    +0.000 HD
ENDBRANCH  17  20
ENDBRANCH   4  17
TORSDOF 4
ENDMDL
MODEL 5
REMARK minimizedAffinity -5.66878462
REMARK minimizedRMSD -1
REMARK  Name = 
REMARK  4 active torsions:
REMARK  status: ('A' for Active; 'I' for Inactive)
REMARK    1  A    between atoms: N_2  and  C_3
REMARK    2  A    between atoms: C_6  and  N_7
REMARK    3  A    between atoms: N_7  and  O_8
REMARK    4  A    between atoms: N_7  and  O_9
REMARK                            x       y       z     vdW  Elec       q    Type
REMARK                         _______ _______ _______ _____ _____    ______ ____
ROOT
ATOM      1  C   UNL     1       7.705  16.745  19.965  0.00  0.00    +0.000 C 
ATOM      2  C   UNL     1       7.073  15.651  19.571  0.00  0.00    +0.000 A 
ATOM      3  C   UNL     1       6.107  14.845  20.241  0.00  0.00    +0.000 A 
ATOM      4  C   UNL     1       5.493  13.855  19.565  0.00  0.00    +0.000 A 
ATOM      5  C   UNL     1       5.899  13.752  18.114  0.00  0.00    +0.000 A 
ATOM      6  C   UNL     1       7.037  14.150  17.469  0.00  0.00    +0.000 A 
ATOM      7  C   UNL     1       7.585  15.364  18.205  0.00  0.00    +0.000 A 
ATOM      8  N   UNL     1       8.359  16.294  17.762  0.00  0.00    +0.000 NA
ATOM      9  C   UNL     1       8.485  17.242  18.788  0.00  0.00    +0.000 C 
ATOM     10  O   UNL     1       9.095  18.266  18.733  0.00  0.00    +0.000 OA
ATOM     11  C   UNL     1       7.004  14.029  15.799  0.00  0.00    +0.000 C 
ATOM     12  C   UNL     1       5.905  14.901  15.096  0.00  0.00    +0.000 C 
ATOM     13  C   UNL     1       5.162  15.531  16.259  0.00  0.00    +0.000 C 
ATOM     14  C   UNL     1       4.871  13.981  17.055  0.00  0.00    +0.000 C 
ENDROOT
BRANCH   1  16
ATOM     15  O   UNL     1       8.671  16.991  21.905  0.00  0.00    +0.000 OA
ATOM     16  N   UNL     1       7.698  17.248  21.195  0.00  0.00    +0.000 NA
ENDBRANCH   1  16
BRANCH   4  17
ATOM     17  N   UNL     1       4.513  13.032  20.170  0.00  0.00    +0.000 N 
BRANCH  17  18
ATOM     18  O   UNL     1       3.554  12.296  19.464  0.00  0.00    +0.000 OA
ATOM     19  H   UNL     1       3.776  12.377  18.526  0.00  0.00    +0.000 HD
ENDBRANCH  17  18
BRANCH  17  20
ATOM     20  O   UNL     1       4.267  13.055  21.529  0.00  0.00    +0.000 OA
ATOM     21  H   UNL     1       3.490  12.459  21.579  0.00  0.00    +0.000 HD
ENDBRANCH  17  20
ENDBRANCH   4  17
TORSDOF 4
ENDMDL
MODEL 6
REMARK minimizedAffinity -5.64748478
REMARK minimizedRMSD -1
REMARK  Name = 
REMARK  4 active torsions:
REMARK  status: ('A' for Active; 'I' for Inactive)
REMARK    1  A    between atoms: N_2  and  C_3
REMARK    2  A    between atoms: C_6  and  N_7
REMARK    3  A    between atoms: N_7  and  O_8
REMARK    4  A    between atoms: N_7  and  O_9
REMARK                            x       y       z     vdW  Elec       q    Type
REMARK                         _______ _______ _______ _____ _____    ______ ____
ROOT
ATOM      1  C   UNL     1       7.962  16.978  19.388  0.00  0.00    +0.000 C 
ATOM      2  C   UNL     1       7.043  16.027  19.455  0.00  0.00    +0.000 A 
ATOM      3  C   UNL     1       7.019  14.719  18.888  0.00  0.00    +0.000 A 
ATOM      4  C   UNL     1       6.026  13.874  19.227  0.00  0.00    +0.000 A 
ATOM      5  C   UNL     1       5.052  14.436  20.235  0.00  0.00    +0.000 A 
ATOM      6  C   UNL     1       4.718  15.726  20.539  0.00  0.00    +0.000 A 
ATOM      7  C   UNL     1       5.939  16.594  20.274  0.00  0.00    +0.000 A 
ATOM      8  N   UNL     1       6.237  17.744  20.775  0.00  0.00    +0.000 NA
ATOM      9  C   UNL     1       7.514  18.075  20.301  0.00  0.00    +0.000 C 
ATOM     10  O   UNL     1       8.140  19.053  20.583  0.00  0.00    +0.000 OA
ATOM     11  C   UNL     1       3.728  15.923  21.876  0.00  0.00    +0.000 C 
ATOM     12  C   UNL     1       4.337  15.412  23.229  0.00  0.00    +0.000 C 
ATOM     13  C   UNL     1       5.665  14.812  22.810  0.00  0.00    +0.000 C 
ATOM     14  C   UNL     1       4.936  13.783  21.573  0.00  0.00    +0.000 C 
ENDROOT
BRANCH   1  16
ATOM     15  O   UNL     1       8.866  17.367  17.441  0.00  0.00    +0.000 OA
ATOM     16  N   UNL     1       9.029  16.975  18.598  0.00  0.00    +0.000 NA
ENDBRANCH   1  16
BRANCH   4  17
ATOM     17  N   UNL     1       5.957  12.557  18.712  0.00  0.00    +0.000 N 
BRANCH  17  18
ATOM     18  O   UNL     1       6.805  12.051  17.720  0.00  0.00    +0.000 OA
ATOM     19  H   UNL     1       7.484  12.723  17.563  0.00  0.00    +0.000 HD
ENDBRANCH  17  18
BRANCH  17  20
ATOM     20  O   UNL     1       4.895  11.715  18.981  0.00  0.00    +0.000 OA
ATOM     21  H   UNL     1       5.122  10.955  18.404  0.00  0.00    +0.000 HD
ENDBRANCH  17  20
ENDBRANCH   4  17
TORSDOF 4
ENDMDL
MODEL 7
REMARK minimizedAffinity -5.64436483
REMARK minimizedRMSD -1
REMARK  Name = 
REMARK  4 active torsions:
REMARK  status: ('A' for Active; 'I' for Inactive)
REMARK    1  A    between atoms: N_2  and  C_3
REMARK    2  A    between atoms: C_6  and  N_7
REMARK    3  A    between atoms: N_7  and  O_8
REMARK    4  A    between atoms: N_7  and  O_9
REMARK                            x       y       z     vdW  Elec       q    Type
REMARK                         _______ _______ _______ _____ _____    ______ ____
ROOT
ATOM      1  C   UNL     1       7.983  15.793  16.446  0.00  0.00    +0.000 C 
ATOM      2  C   UNL     1       7.193  14.731  16.441  0.00  0.00    +0.000 A 
ATOM      3  C   UNL     1       7.301  13.498  15.734  0.00  0.00    +0.000 A 
ATOM      4  C   UNL     1       6.439  12.502  16.012  0.00  0.00    +0.000 A 
ATOM      5  C   UNL     1       5.454  12.826  17.111  0.00  0.00    +0.000 A 
ATOM      6  C   UNL     1       4.979  14.023  17.568  0.00  0.00    +0.000 A 
ATOM      7  C   UNL     1       6.070  15.064  17.357  0.00  0.00    +0.000 A 
ATOM      8  N   UNL     1       6.248  16.182  17.971  0.00  0.00    +0.000 NA
ATOM      9  C   UNL     1       7.450  16.722  17.492  0.00  0.00    +0.000 C 
ATOM     10  O   UNL     1       7.964  17.736  17.857  0.00  0.00    +0.000 OA
ATOM     11  C   UNL     1       4.040  13.951  18.953  0.00  0.00    +0.000 C 
ATOM     12  C   UNL     1       4.773  13.382  20.219  0.00  0.00    +0.000 C 
ATOM     13  C   UNL     1       6.143  13.003  19.688  0.00  0.00    +0.000 C 
ATOM     14  C   UNL     1       5.485  12.026  18.372  0.00  0.00    +0.000 C 
ENDROOT
BRANCH   1  16
ATOM     15  O   UNL     1       8.759  16.634  14.590  0.00  0.00    +0.000 OA
ATOM     16  N   UNL     1       9.003  16.010  15.623  0.00  0.00    +0.000 NA
ENDBRANCH   1  16
BRANCH   4  17
ATOM     17  N   UNL     1       6.506  11.249  15.358  0.00  0.00    +0.000 N 
BRANCH  17  18
ATOM     18  O   UNL     1       5.446  10.667  14.652  0.00  0.00    +0.000 OA
ATOM     19  H   UNL     1       4.741  11.329  14.613  0.00  0.00    +0.000 HD
ENDBRANCH  17  18
BRANCH  17  20
ATOM     20  O   UNL     1       7.559  10.374  15.545  0.00  0.00    +0.000 OA
ATOM     21  H   UNL     1       7.238   9.599  15.038  0.00  0.00    +0.000 HD
ENDBRANCH  17  20
ENDBRANCH   4  17
TORSDOF 4
ENDMDL
MODEL 8
REMARK minimizedAffinity -5.64037848
REMARK minimizedRMSD -1
REMARK  Name = 
REMARK  4 active torsions:
REMARK  status: ('A' for Active; 'I' for Inactive)
REMARK    1  A    between atoms: N_2  and  C_3
REMARK    2  A    between atoms: C_6  and  N_7
REMARK    3  A    between atoms: N_7  and  O_8
REMARK    4  A    between atoms: N_7  and  O_9
REMARK                            x       y       z     vdW  Elec       q    Type
REMARK                         _______ _______ _______ _____ _____    ______ ____
ROOT
ATOM      1  C   UNL     1       7.985  18.423  18.543  0.00  0.00    +0.000 C 
ATOM      2  C   UNL     1       8.484  18.003  19.695  0.00  0.00    +0.000 A 
ATOM      3  C   UNL     1       9.781  18.175  20.262  0.00  0.00    +0.000 A 
ATOM      4  C   UNL     1      10.003  17.776  21.529  0.00  0.00    +0.000 A 
ATOM      5  C   UNL     1       8.786  17.213  22.223  0.00  0.00    +0.000 A 
ATOM      6  C   UNL     1       7.653  16.634  21.722  0.00  0.00    +0.000 A 
ATOM      7  C   UNL     1       7.387  17.247  20.355  0.00  0.00    +0.000 A 
ATOM      8  N   UNL     1       6.273  17.329  19.710  0.00  0.00    +0.000 NA
ATOM      9  C   UNL     1       6.528  18.079  18.553  0.00  0.00    +0.000 C 
ATOM     10  O   UNL     1       5.727  18.396  17.727  0.00  0.00    +0.000 OA
ATOM     11  C   UNL     1       6.443  16.323  22.837  0.00  0.00    +0.000 C 
ATOM     12  C   UNL     1       5.872  17.591  23.562  0.00  0.00    +0.000 C 
ATOM     13  C   UNL     1       6.725  18.721  23.016  0.00  0.00    +0.000 C 
ATOM     14  C   UNL     1       8.244  17.917  23.423  0.00  0.00    +0.000 C 
ENDROOT
BRANCH   1  16
ATOM     15  O   UNL     1       8.442  20.155  17.300  0.00  0.00    +0.000 OA
ATOM     16  N   UNL     1       8.674  18.972  17.549  0.00  0.00    +0.000 NA
ENDBRANCH   1  16
BRANCH   4  17
ATOM     17  N   UNL     1      11.264  17.935  22.153  0.00  0.00    +0.000 N 
BRANCH  17  18
ATOM     18  O   UNL     1      12.205  16.910  22.306  0.00  0.00    +0.000 OA
ATOM     19  H   UNL     1      11.870  16.148  21.812  0.00  0.00    +0.000 HD
ENDBRANCH  17  18
BRANCH  17  20
ATOM     20  O   UNL     1      11.593  19.067  22.873  0.00  0.00    +0.000 OA
ATOM     21  H   UNL     1      12.466  18.801  23.232  0.00  0.00    +0.000 HD
ENDBRANCH  17  20
ENDBRANCH   4  17
TORSDOF 4
ENDMDL
MODEL 9
REMARK minimizedAffinity -5.60919428
REMARK minimizedRMSD -1
REMARK  Name = 
REMARK  4 active torsions:
REMARK  status: ('A' for Active; 'I' for Inactive)
REMARK    1  A    between atoms: N_2  and  C_3
REMARK    2  A    between atoms: C_6  and  N_7
REMARK    3  A    between atoms: N_7  and  O_8
REMARK    4  A    between atoms: N_7  and  O_9
REMARK                            x       y       z     vdW  Elec       q    Type
REMARK                         _______ _______ _______ _____ _____    ______ ____
ROOT
ATOM      1  C   UNL     1      34.940   9.444  28.237  0.00  0.00    +0.000 C 
ATOM      2  C   UNL     1      34.877  10.764  28.164  0.00  0.00    +0.000 A 
ATOM      3  C   UNL     1      34.419  11.725  29.113  0.00  0.00    +0.000 A 
ATOM      4  C   UNL     1      34.596  13.035  28.860  0.00  0.00    +0.000 A 
ATOM      5  C   UNL     1      35.323  13.323  27.567  0.00  0.00    +0.000 A 
ATOM      6  C   UNL     1      35.450  12.585  26.424  0.00  0.00    +0.000 A 
ATOM      7  C   UNL     1      35.392  11.115  26.814  0.00  0.00    +0.000 A 
ATOM      8  N   UNL     1      35.858  10.093  26.182  0.00  0.00    +0.000 NA
ATOM      9  C   UNL     1      35.650   8.977  27.005  0.00  0.00    +0.000 C 
ATOM     10  O   UNL     1      35.986   7.855  26.772  0.00  0.00    +0.000 OA
ATOM     11  C   UNL     1      36.521  13.188  25.286  0.00  0.00    +0.000 C 
ATOM     12  C   UNL     1      38.008  13.299  25.773  0.00  0.00    +0.000 C 
ATOM     13  C   UNL     1      37.935  12.862  27.224  0.00  0.00    +0.000 C 
ATOM     14  C   UNL     1      36.649  14.008  27.619  0.00  0.00    +0.000 C 
ENDROOT
BRANCH   1  16
ATOM     15  O   UNL     1      33.206   8.425  29.079  0.00  0.00    +0.000 OA
ATOM     16  N   UNL     1      34.403   8.689  29.190  0.00  0.00    +0.000 NA
ENDBRANCH   1  16
BRANCH   4  17
ATOM     17  N   UNL     1      34.179  14.036  29.770  0.00  0.00    +0.000 N 
BRANCH  17  18
ATOM     18  O   UNL     1      33.471  13.785  30.951  0.00  0.00    +0.000 OA
ATOM     19  H   UNL     1      33.440  12.823  31.059  0.00  0.00    +0.000 HD
ENDBRANCH  17  18
BRANCH  17  20
ATOM     20  O   UNL     1      34.234  15.382  29.463  0.00  0.00    +0.000 OA
ATOM     21  H   UNL     1      33.790  15.762  30.250  0.00  0.00    +0.000 HD
ENDBRANCH  17  20
ENDBRANCH   4  17
TORSDOF 4
ENDMDL
