MODEL 1
REMARK minimizedAffinity -7.35599899
REMARK minimizedRMSD -1
REMARK  Name = 
REMARK  6 active torsions:
REMARK  status: ('A' for Active; 'I' for Inactive)
REMARK    1  A    between atoms: C_6  and  C_7
REMARK    2  A    between atoms: C_7  and  N_8
REMARK    3  A    between atoms: N_8  and  C_9
REMARK    4  A    between atoms: C_12  and  S_15
REMARK    5  A    between atoms: S_15  and  N_18
REMARK    6  A    between atoms: N_18  and  C_19
REMARK                            x       y       z     vdW  Elec       q    Type
REMARK                         _______ _______ _______ _____ _____    ______ ____
ROOT
ATOM      1  C   UNL     1      13.011 -18.052  -0.460  0.00  0.00    +0.000 A 
ATOM      2  C   UNL     1      12.400 -17.903  -1.694  0.00  0.00    +0.000 A 
ATOM      3  C   UNL     1      11.954 -16.669  -2.115  0.00  0.00    +0.000 A 
ATOM      4  C   UNL     1      12.010 -15.555  -1.316  0.00  0.00    +0.000 A 
ATOM      5  C   UNL     1      12.800 -15.630  -0.165  0.00  0.00    +0.000 A 
ATOM      6  C   UNL     1      13.238 -16.895   0.295  0.00  0.00    +0.000 A 
ENDROOT
BRANCH   4   7
ATOM      7  S   UNL     1      11.018 -14.129  -1.705  0.00  0.00    +0.000 S 
ATOM      8  O   UNL     1      10.450 -14.362  -3.021  0.00  0.00    +0.000 OA
ATOM      9  O   UNL     1      10.123 -13.961  -0.576  0.00  0.00    +0.000 OA
BRANCH   7  10
ATOM     10  N   UNL     1      11.891 -12.661  -1.873  0.00  0.00    +0.000 N 
ATOM     11  H   UNL     1      11.421 -11.939  -1.334  0.00  0.00    +0.000 HD
BRANCH  10  12
ATOM     12  C   UNL     1      13.310 -12.539  -1.897  0.00  0.00    +0.000 A 
ATOM     13  C   UNL     1      14.046 -12.639  -3.075  0.00  0.00    +0.000 A 
ATOM     14  C   UNL     1      15.361 -12.148  -3.094  0.00  0.00    +0.000 A 
ATOM     15  C   UNL     1      15.954 -11.724  -1.911  0.00  0.00    +0.000 A 
ATOM     16  C   UNL     1      15.191 -11.796  -0.758  0.00  0.00    +0.000 A 
ATOM     17  N   UNL     1      13.885 -12.184  -0.730  0.00  0.00    +0.000 NA
ENDBRANCH  10  12
ENDBRANCH   7  10
ENDBRANCH   4   7
BRANCH   1  18
ATOM     18  N   UNL     1      13.425 -19.326  -0.065  0.00  0.00    +0.000 N 
ATOM     19  H   UNL     1      13.969 -19.841  -0.741  0.00  0.00    +0.000 HD
BRANCH  18  20
ATOM     20  C   UNL     1      12.425 -20.120   0.627  0.00  0.00    +0.000 C 
BRANCH  20  26
ATOM     21  O   UNL     1      12.939 -23.093  -0.067  0.00  0.00    +0.000 OA
ATOM     22  C   UNL     1      12.410 -22.394   0.746  0.00  0.00    +0.000 C 
ATOM     23  N   UNL     1      11.228 -22.456   1.527  0.00  0.00    +0.000 NA
ATOM     24  C   UNL     1      11.635 -21.987   2.679  0.00  0.00    +0.000 A 
ATOM     25  C   UNL     1      13.109 -21.818   2.603  0.00  0.00    +0.000 A 
ATOM     26  C   UNL     1      13.147 -21.282   1.352  0.00  0.00    +0.000 C 
ATOM     27  C   UNL     1      13.514 -23.193   3.059  0.00  0.00    +0.000 A 
ATOM     28  S   UNL     1      14.369 -24.441   2.227  0.00  0.00    +0.000 S 
ATOM     29  C   UNL     1      14.003 -25.548   3.497  0.00  0.00    +0.000 A 
ATOM     30  N   UNL     1      13.160 -25.128   4.418  0.00  0.00    +0.000 NA
ATOM     31  C   UNL     1      12.824 -23.839   4.101  0.00  0.00    +0.000 A 
ATOM     32  C   UNL     1      11.756 -23.130   4.749  0.00  0.00    +0.000 A 
ATOM     33  C   UNL     1      11.154 -22.104   4.098  0.00  0.00    +0.000 A 
ENDBRANCH  20  26
ENDBRANCH  18  20
ENDBRANCH   1  18
TORSDOF 6
ENDMDL
MODEL 2
REMARK minimizedAffinity -7.21456671
REMARK minimizedRMSD -1
REMARK  Name = 
REMARK  6 active torsions:
REMARK  status: ('A' for Active; 'I' for Inactive)
REMARK    1  A    between atoms: C_6  and  C_7
REMARK    2  A    between atoms: C_7  and  N_8
REMARK    3  A    between atoms: N_8  and  C_9
REMARK    4  A    between atoms: C_12  and  S_15
REMARK    5  A    between atoms: S_15  and  N_18
REMARK    6  A    between atoms: N_18  and  C_19
REMARK                            x       y       z     vdW  Elec       q    Type
REMARK                         _______ _______ _______ _____ _____    ______ ____
ROOT
ATOM      1  C   UNL     1      12.958 -18.357  -0.649  0.00  0.00    +0.000 A 
ATOM      2  C   UNL     1      12.243 -18.105  -1.807  0.00  0.00    +0.000 A 
ATOM      3  C   UNL     1      11.817 -16.829  -2.110  0.00  0.00    +0.000 A 
ATOM      4  C   UNL     1      12.000 -15.772  -1.256  0.00  0.00    +0.000 A 
ATOM      5  C   UNL     1      12.889 -15.951  -0.193  0.00  0.00    +0.000 A 
ATOM      6  C   UNL     1      13.309 -17.259   0.147  0.00  0.00    +0.000 A 
ENDROOT
BRANCH   4   7
ATOM      7  S   UNL     1      11.044 -14.285  -1.463  0.00  0.00    +0.000 S 
ATOM      8  O   UNL     1      10.598 -14.264  -2.845  0.00  0.00    +0.000 OA
ATOM      9  O   UNL     1      10.050 -14.314  -0.407  0.00  0.00    +0.000 OA
BRANCH   7  10
ATOM     10  N   UNL     1      11.925 -12.823  -1.280  0.00  0.00    +0.000 N 
ATOM     11  H   UNL     1      11.613 -12.358  -0.431  0.00  0.00    +0.000 HD
BRANCH  10  12
ATOM     12  C   UNL     1      13.311 -12.650  -1.561  0.00  0.00    +0.000 A 
ATOM     13  C   UNL     1      13.832 -12.785  -2.846  0.00  0.00    +0.000 A 
ATOM     14  C   UNL     1      15.099 -12.247  -3.120  0.00  0.00    +0.000 A 
ATOM     15  C   UNL     1      15.871 -11.741  -2.082  0.00  0.00    +0.000 A 
ATOM     16  C   UNL     1      15.327 -11.780  -0.810  0.00  0.00    +0.000 A 
ATOM     17  N   UNL     1      14.066 -12.214  -0.533  0.00  0.00    +0.000 NA
ENDBRANCH  10  12
ENDBRANCH   7  10
ENDBRANCH   4   7
BRANCH   1  18
ATOM     18  N   UNL     1      13.348 -19.668  -0.371  0.00  0.00    +0.000 N 
ATOM     19  H   UNL     1      14.198 -19.980  -0.818  0.00  0.00    +0.000 HD
BRANCH  18  20
ATOM     20  C   UNL     1      12.278 -20.650  -0.375  0.00  0.00    +0.000 C 
BRANCH  20  26
ATOM     21  O   UNL     1      12.677 -22.891   1.724  0.00  0.00    +0.000 OA
ATOM     22  C   UNL     1      11.827 -22.316   1.111  0.00  0.00    +0.000 C 
ATOM     23  N   UNL     1      10.590 -22.667   0.511  0.00  0.00    +0.000 NA
ATOM     24  C   UNL     1       9.839 -21.637   0.808  0.00  0.00    +0.000 A 
ATOM     25  C   UNL     1      10.608 -20.768   1.736  0.00  0.00    +0.000 A 
ATOM     26  C   UNL     1      11.801 -20.851   1.085  0.00  0.00    +0.000 C 
ATOM     27  C   UNL     1      10.189 -21.404   3.033  0.00  0.00    +0.000 A 
ATOM     28  S   UNL     1      11.123 -22.228   4.229  0.00  0.00    +0.000 S 
ATOM     29  C   UNL     1       9.678 -22.738   5.018  0.00  0.00    +0.000 A 
ATOM     30  N   UNL     1       8.547 -22.493   4.388  0.00  0.00    +0.000 NA
ATOM     31  C   UNL     1       8.863 -21.830   3.233  0.00  0.00    +0.000 A 
ATOM     32  C   UNL     1       7.911 -21.596   2.182  0.00  0.00    +0.000 A 
ATOM     33  C   UNL     1       8.358 -21.404   0.916  0.00  0.00    +0.000 A 
ENDBRANCH  20  26
ENDBRANCH  18  20
ENDBRANCH   1  18
TORSDOF 6
ENDMDL
MODEL 3
REMARK minimizedAffinity -7.17104435
REMARK minimizedRMSD -1
REMARK  Name = 
REMARK  6 active torsions:
REMARK  status: ('A' for Active; 'I' for Inactive)
REMARK    1  A    between atoms: C_6  and  C_7
REMARK    2  A    between atoms: C_7  and  N_8
REMARK    3  A    between atoms: N_8  and  C_9
REMARK    4  A    between atoms: C_12  and  S_15
REMARK    5  A    between atoms: S_15  and  N_18
REMARK    6  A    between atoms: N_18  and  C_19
REMARK                            x       y       z     vdW  Elec       q    Type
REMARK                         _______ _______ _______ _____ _____    ______ ____
ROOT
ATOM      1  C   UNL     1      12.717 -18.264  -0.380  0.00  0.00    +0.000 A 
ATOM      2  C   UNL     1      11.846 -18.114  -1.446  0.00  0.00    +0.000 A 
ATOM      3  C   UNL     1      11.448 -16.860  -1.859  0.00  0.00    +0.000 A 
ATOM      4  C   UNL     1      11.816 -15.717  -1.197  0.00  0.00    +0.000 A 
ATOM      5  C   UNL     1      12.849 -15.822  -0.261  0.00  0.00    +0.000 A 
ATOM      6  C   UNL     1      13.245 -17.102   0.195  0.00  0.00    +0.000 A 
ENDROOT
BRANCH   4   7
ATOM      7  S   UNL     1      10.921 -14.203  -1.468  0.00  0.00    +0.000 S 
ATOM      8  O   UNL     1      10.512 -14.204  -2.862  0.00  0.00    +0.000 OA
ATOM      9  O   UNL     1       9.900 -14.167  -0.440  0.00  0.00    +0.000 OA
BRANCH   7  10
ATOM     10  N   UNL     1      11.850 -12.769  -1.300  0.00  0.00    +0.000 N 
ATOM     11  H   UNL     1      11.556 -12.287  -0.454  0.00  0.00    +0.000 HD
BRANCH  10  12
ATOM     12  C   UNL     1      13.240 -12.644  -1.587  0.00  0.00    +0.000 A 
ATOM     13  C   UNL     1      13.752 -12.805  -2.872  0.00  0.00    +0.000 A 
ATOM     14  C   UNL     1      15.035 -12.311  -3.155  0.00  0.00    +0.000 A 
ATOM     15  C   UNL     1      15.827 -11.823  -2.123  0.00  0.00    +0.000 A 
ATOM     16  C   UNL     1      15.286 -11.835  -0.848  0.00  0.00    +0.000 A 
ATOM     17  N   UNL     1      14.012 -12.225  -0.564  0.00  0.00    +0.000 NA
ENDBRANCH  10  12
ENDBRANCH   7  10
ENDBRANCH   4   7
BRANCH   1  18
ATOM     18  N   UNL     1      13.074 -19.554   0.018  0.00  0.00    +0.000 N 
ATOM     19  H   UNL     1      13.571 -20.105  -0.666  0.00  0.00    +0.000 HD
BRANCH  18  20
ATOM     20  C   UNL     1      12.054 -20.286   0.747  0.00  0.00    +0.000 C 
BRANCH  20  26
ATOM     21  O   UNL     1      10.573 -22.902   1.487  0.00  0.00    +0.000 OA
ATOM     22  C   UNL     1      11.507 -22.227   1.805  0.00  0.00    +0.000 C 
ATOM     23  N   UNL     1      12.137 -21.870   3.025  0.00  0.00    +0.000 NA
ATOM     24  C   UNL     1      13.405 -21.919   2.704  0.00  0.00    +0.000 A 
ATOM     25  C   UNL     1      13.503 -22.480   1.332  0.00  0.00    +0.000 A 
ATOM     26  C   UNL     1      12.468 -21.777   0.794  0.00  0.00    +0.000 C 
ATOM     27  C   UNL     1      13.573 -23.938   1.693  0.00  0.00    +0.000 A 
ATOM     28  S   UNL     1      12.488 -25.234   1.334  0.00  0.00    +0.000 S 
ATOM     29  C   UNL     1      13.348 -26.264   2.417  0.00  0.00    +0.000 A 
ATOM     30  N   UNL     1      14.279 -25.694   3.155  0.00  0.00    +0.000 NA
ATOM     31  C   UNL     1      14.322 -24.372   2.802  0.00  0.00    +0.000 A 
ATOM     32  C   UNL     1      15.057 -23.389   3.549  0.00  0.00    +0.000 A 
ATOM     33  C   UNL     1      14.684 -22.087   3.474  0.00  0.00    +0.000 A 
ENDBRANCH  20  26
ENDBRANCH  18  20
ENDBRANCH   1  18
TORSDOF 6
ENDMDL
MODEL 4
REMARK minimizedAffinity -7.10885429
REMARK minimizedRMSD -1
REMARK  Name = 
REMARK  6 active torsions:
REMARK  status: ('A' for Active; 'I' for Inactive)
REMARK    1  A    between atoms: C_6  and  C_7
REMARK    2  A    between atoms: C_7  and  N_8
REMARK    3  A    between atoms: N_8  and  C_9
REMARK    4  A    between atoms: C_12  and  S_15
REMARK    5  A    between atoms: S_15  and  N_18
REMARK    6  A    between atoms: N_18  and  C_19
REMARK                            x       y       z     vdW  Elec       q    Type
REMARK                         _______ _______ _______ _____ _____    ______ ____
ROOT
ATOM      1  C   UNL     1      -0.707 -15.140  22.615  0.00  0.00    +0.000 A 
ATOM      2  C   UNL     1       0.303 -16.064  22.409  0.00  0.00    +0.000 A 
ATOM      3  C   UNL     1       1.178 -16.390  23.423  0.00  0.00    +0.000 A 
ATOM      4  C   UNL     1       1.153 -15.766  24.644  0.00  0.00    +0.000 A 
ATOM      5  C   UNL     1       0.029 -14.992  24.946  0.00  0.00    +0.000 A 
ATOM      6  C   UNL     1      -0.860 -14.625  23.908  0.00  0.00    +0.000 A 
ENDROOT
BRANCH   4   7
ATOM      7  S   UNL     1       2.559 -15.874  25.730  0.00  0.00    +0.000 S 
ATOM      8  O   UNL     1       2.051 -15.751  27.085  0.00  0.00    +0.000 OA
ATOM      9  O   UNL     1       3.250 -17.090  25.349  0.00  0.00    +0.000 OA
BRANCH   7  10
ATOM     10  N   UNL     1       3.689 -14.590  25.583  0.00  0.00    +0.000 N 
ATOM     11  H   UNL     1       3.190 -13.707  25.649  0.00  0.00    +0.000 HD
BRANCH  10  12
ATOM     12  C   UNL     1       4.994 -14.565  26.157  0.00  0.00    +0.000 A 
ATOM     13  C   UNL     1       6.039 -15.341  25.663  0.00  0.00    +0.000 A 
ATOM     14  C   UNL     1       7.355 -15.003  26.014  0.00  0.00    +0.000 A 
ATOM     15  C   UNL     1       7.581 -14.016  26.965  0.00  0.00    +0.000 A 
ATOM     16  C   UNL     1       6.471 -13.395  27.511  0.00  0.00    +0.000 A 
ATOM     17  N   UNL     1       5.189 -13.643  27.121  0.00  0.00    +0.000 NA
ENDBRANCH  10  12
ENDBRANCH   7  10
ENDBRANCH   4   7
BRANCH   1  18
ATOM     18  N   UNL     1      -1.555 -14.824  21.552  0.00  0.00    +0.000 N 
ATOM     19  H   UNL     1      -1.651 -15.532  20.839  0.00  0.00    +0.000 HD
BRANCH  18  20
ATOM     20  C   UNL     1      -1.430 -13.472  21.037  0.00  0.00    +0.000 C 
BRANCH  20  26
ATOM     21  O   UNL     1      -1.772 -15.669  18.882  0.00  0.00    +0.000 OA
ATOM     22  C   UNL     1      -1.187 -14.650  19.103  0.00  0.00    +0.000 C 
ATOM     23  N   UNL     1       0.105 -14.136  18.822  0.00  0.00    +0.000 NA
ATOM     24  C   UNL     1      -0.155 -12.891  18.515  0.00  0.00    +0.000 A 
ATOM     25  C   UNL     1      -1.631 -12.739  18.452  0.00  0.00    +0.000 A 
ATOM     26  C   UNL     1      -1.917 -13.467  19.567  0.00  0.00    +0.000 C 
ATOM     27  C   UNL     1      -1.830 -13.102  17.006  0.00  0.00    +0.000 A 
ATOM     28  S   UNL     1      -2.688 -14.418  16.289  0.00  0.00    +0.000 S 
ATOM     29  C   UNL     1      -2.024 -14.021  14.748  0.00  0.00    +0.000 A 
ATOM     30  N   UNL     1      -1.087 -13.095  14.733  0.00  0.00    +0.000 NA
ATOM     31  C   UNL     1      -0.927 -12.661  16.021  0.00  0.00    +0.000 A 
ATOM     32  C   UNL     1       0.161 -11.816  16.430  0.00  0.00    +0.000 A 
ATOM     33  C   UNL     1       0.555 -11.826  17.727  0.00  0.00    +0.000 A 
ENDBRANCH  20  26
ENDBRANCH  18  20
ENDBRANCH   1  18
TORSDOF 6
ENDMDL
MODEL 5
REMARK minimizedAffinity -7.04468012
REMARK minimizedRMSD -1
REMARK  Name = 
REMARK  6 active torsions:
REMARK  status: ('A' for Active; 'I' for Inactive)
REMARK    1  A    between atoms: C_6  and  C_7
REMARK    2  A    between atoms: C_7  and  N_8
REMARK    3  A    between atoms: N_8  and  C_9
REMARK    4  A    between atoms: C_12  and  S_15
REMARK    5  A    between atoms: S_15  and  N_18
REMARK    6  A    between atoms: N_18  and  C_19
REMARK                            x       y       z     vdW  Elec       q    Type
REMARK                         _______ _______ _______ _____ _____    ______ ____
ROOT
ATOM      1  C   UNL     1      -1.331 -15.967  12.530  0.00  0.00    +0.000 A 
ATOM      2  C   UNL     1      -1.727 -15.815  11.212  0.00  0.00    +0.000 A 
ATOM      3  C   UNL     1      -1.203 -16.617  10.221  0.00  0.00    +0.000 A 
ATOM      4  C   UNL     1      -0.215 -17.536  10.466  0.00  0.00    +0.000 A 
ATOM      5  C   UNL     1       0.050 -17.853  11.801  0.00  0.00    +0.000 A 
ATOM      6  C   UNL     1      -0.456 -17.019  12.826  0.00  0.00    +0.000 A 
ENDROOT
BRANCH   4   7
ATOM      7  S   UNL     1       0.742 -18.196   9.118  0.00  0.00    +0.000 S 
ATOM      8  O   UNL     1       0.728 -19.641   9.264  0.00  0.00    +0.000 OA
ATOM      9  O   UNL     1       0.178 -17.608   7.919  0.00  0.00    +0.000 OA
BRANCH   7  10
ATOM     10  N   UNL     1       2.408 -17.784   9.141  0.00  0.00    +0.000 N 
ATOM     11  H   UNL     1       2.495 -16.781   9.281  0.00  0.00    +0.000 HD
BRANCH  10  12
ATOM     12  C   UNL     1       3.443 -18.548   9.755  0.00  0.00    +0.000 A 
ATOM     13  C   UNL     1       3.378 -18.953  11.086  0.00  0.00    +0.000 A 
ATOM     14  C   UNL     1       4.218 -19.992  11.517  0.00  0.00    +0.000 A 
ATOM     15  C   UNL     1       5.200 -20.480  10.665  0.00  0.00    +0.000 A 
ATOM     16  C   UNL     1       5.285 -19.915   9.405  0.00  0.00    +0.000 A 
ATOM     17  N   UNL     1       4.424 -18.970   8.933  0.00  0.00    +0.000 NA
ENDBRANCH  10  12
ENDBRANCH   7  10
ENDBRANCH   4   7
BRANCH   1  18
ATOM     18  N   UNL     1      -1.871 -15.116  13.496  0.00  0.00    +0.000 N 
ATOM     19  H   UNL     1      -2.801 -14.770  13.309  0.00  0.00    +0.000 HD
BRANCH  18  20
ATOM     20  C   UNL     1      -0.960 -14.118  14.027  0.00  0.00    +0.000 C 
BRANCH  20  26
ATOM     21  O   UNL     1      -2.733 -15.520  16.142  0.00  0.00    +0.000 OA
ATOM     22  C   UNL     1      -2.264 -14.457  15.863  0.00  0.00    +0.000 C 
ATOM     23  N   UNL     1      -2.683 -13.104  15.952  0.00  0.00    +0.000 NA
ATOM     24  C   UNL     1      -1.586 -12.502  16.333  0.00  0.00    +0.000 A 
ATOM     25  C   UNL     1      -0.575 -13.548  16.632  0.00  0.00    +0.000 A 
ATOM     26  C   UNL     1      -0.836 -14.339  15.554  0.00  0.00    +0.000 C 
ATOM     27  C   UNL     1      -0.912 -13.775  18.080  0.00  0.00    +0.000 A 
ATOM     28  S   UNL     1      -1.507 -15.183  18.883  0.00  0.00    +0.000 S 
ATOM     29  C   UNL     1      -1.786 -14.260  20.312  0.00  0.00    +0.000 A 
ATOM     30  N   UNL     1      -1.633 -12.955  20.207  0.00  0.00    +0.000 NA
ATOM     31  C   UNL     1      -1.236 -12.696  18.923  0.00  0.00    +0.000 A 
ATOM     32  C   UNL     1      -1.187 -11.370  18.374  0.00  0.00    +0.000 A 
ATOM     33  C   UNL     1      -1.279 -11.206  17.031  0.00  0.00    +0.000 A 
ENDBRANCH  20  26
ENDBRANCH  18  20
ENDBRANCH   1  18
TORSDOF 6
ENDMDL
MODEL 6
REMARK minimizedAffinity -6.99052095
REMARK minimizedRMSD -1
REMARK  Name = 
REMARK  6 active torsions:
REMARK  status: ('A' for Active; 'I' for Inactive)
REMARK    1  A    between atoms: C_6  and  C_7
REMARK    2  A    between atoms: C_7  and  N_8
REMARK    3  A    between atoms: N_8  and  C_9
REMARK    4  A    between atoms: C_12  and  S_15
REMARK    5  A    between atoms: S_15  and  N_18
REMARK    6  A    between atoms: N_18  and  C_19
REMARK                            x       y       z     vdW  Elec       q    Type
REMARK                         _______ _______ _______ _____ _____    ______ ____
ROOT
ATOM      1  C   UNL     1      -0.142 -14.731  20.736  0.00  0.00    +0.000 A 
ATOM      2  C   UNL     1      -1.284 -13.953  20.649  0.00  0.00    +0.000 A 
ATOM      3  C   UNL     1      -2.122 -14.051  19.559  0.00  0.00    +0.000 A 
ATOM      4  C   UNL     1      -1.833 -14.846  18.479  0.00  0.00    +0.000 A 
ATOM      5  C   UNL     1      -0.810 -15.786  18.630  0.00  0.00    +0.000 A 
ATOM      6  C   UNL     1       0.076 -15.678  19.728  0.00  0.00    +0.000 A 
ENDROOT
BRANCH   4   7
ATOM      7  S   UNL     1      -2.675 -14.588  16.933  0.00  0.00    +0.000 S 
ATOM      8  O   UNL     1      -2.329 -15.709  16.077  0.00  0.00    +0.000 OA
ATOM      9  O   UNL     1      -4.067 -14.377  17.280  0.00  0.00    +0.000 OA
BRANCH   7  10
ATOM     10  N   UNL     1      -2.166 -13.207  16.050  0.00  0.00    +0.000 N 
ATOM     11  H   UNL     1      -2.932 -12.898  15.456  0.00  0.00    +0.000 HD
BRANCH  10  12
ATOM     12  C   UNL     1      -1.362 -12.147  16.560  0.00  0.00    +0.000 A 
ATOM     13  C   UNL     1      -1.903 -10.924  16.948  0.00  0.00    +0.000 A 
ATOM     14  C   UNL     1      -1.141 -10.080  17.772  0.00  0.00    +0.000 A 
ATOM     15  C   UNL     1       0.182 -10.400  18.048  0.00  0.00    +0.000 A 
ATOM     16  C   UNL     1       0.681 -11.568  17.497  0.00  0.00    +0.000 A 
ATOM     17  N   UNL     1      -0.065 -12.447  16.770  0.00  0.00    +0.000 NA
ENDBRANCH  10  12
ENDBRANCH   7  10
ENDBRANCH   4   7
BRANCH   1  18
ATOM     18  N   UNL     1       0.690 -14.581  21.848  0.00  0.00    +0.000 N 
ATOM     19  H   UNL     1       1.432 -13.902  21.755  0.00  0.00    +0.000 HD
BRANCH  18  20
ATOM     20  C   UNL     1       1.090 -15.816  22.498  0.00  0.00    +0.000 C 
BRANCH  20  26
ATOM     21  O   UNL     1      -0.863 -14.110  24.190  0.00  0.00    +0.000 OA
ATOM     22  C   UNL     1       0.060 -14.863  24.292  0.00  0.00    +0.000 C 
ATOM     23  N   UNL     1       1.190 -14.979  25.143  0.00  0.00    +0.000 NA
ATOM     24  C   UNL     1       1.251 -16.272  25.342  0.00  0.00    +0.000 A 
ATOM     25  C   UNL     1       0.038 -16.881  24.738  0.00  0.00    +0.000 A 
ATOM     26  C   UNL     1       0.044 -16.149  23.589  0.00  0.00    +0.000 C 
ATOM     27  C   UNL     1      -0.878 -16.775  25.926  0.00  0.00    +0.000 A 
ATOM     28  S   UNL     1      -2.345 -15.887  26.133  0.00  0.00    +0.000 S 
ATOM     29  C   UNL     1      -2.330 -16.241  27.820  0.00  0.00    +0.000 A 
ATOM     30  N   UNL     1      -1.246 -16.825  28.288  0.00  0.00    +0.000 NA
ATOM     31  C   UNL     1      -0.406 -17.029  27.226  0.00  0.00    +0.000 A 
ATOM     32  C   UNL     1       0.963 -17.438  27.382  0.00  0.00    +0.000 A 
ATOM     33  C   UNL     1       1.854 -17.150  26.402  0.00  0.00    +0.000 A 
ENDBRANCH  20  26
ENDBRANCH  18  20
ENDBRANCH   1  18
TORSDOF 6
ENDMDL
MODEL 7
REMARK minimizedAffinity -6.93721819
REMARK minimizedRMSD -1
REMARK  Name = 
REMARK  6 active torsions:
REMARK  status: ('A' for Active; 'I' for Inactive)
REMARK    1  A    between atoms: C_6  and  C_7
REMARK    2  A    between atoms: C_7  and  N_8
REMARK    3  A    between atoms: N_8  and  C_9
REMARK    4  A    between atoms: C_12  and  S_15
REMARK    5  A    between atoms: S_15  and  N_18
REMARK    6  A    between atoms: N_18  and  C_19
REMARK                            x       y       z     vdW  Elec       q    Type
REMARK                         _______ _______ _______ _____ _____    ______ ____
ROOT
ATOM      1  C   UNL     1       0.846 -18.038  13.315  0.00  0.00    +0.000 A 
ATOM      2  C   UNL     1      -0.227 -17.481  12.639  0.00  0.00    +0.000 A 
ATOM      3  C   UNL     1      -0.638 -16.193  12.908  0.00  0.00    +0.000 A 
ATOM      4  C   UNL     1      -0.074 -15.433  13.901  0.00  0.00    +0.000 A 
ATOM      5  C   UNL     1       1.131 -15.885  14.448  0.00  0.00    +0.000 A 
ATOM      6  C   UNL     1       1.547 -17.216  14.206  0.00  0.00    +0.000 A 
ENDROOT
BRANCH   4   7
ATOM      7  S   UNL     1      -0.924 -13.996  14.515  0.00  0.00    +0.000 S 
ATOM      8  O   UNL     1      -0.171 -12.840  14.060  0.00  0.00    +0.000 OA
ATOM      9  O   UNL     1      -2.300 -14.147  14.087  0.00  0.00    +0.000 OA
BRANCH   7  10
ATOM     10  N   UNL     1      -0.946 -13.840  16.225  0.00  0.00    +0.000 N 
ATOM     11  H   UNL     1      -0.457 -14.634  16.631  0.00  0.00    +0.000 HD
BRANCH  10  12
ATOM     12  C   UNL     1      -0.782 -12.624  16.949  0.00  0.00    +0.000 A 
ATOM     13  C   UNL     1       0.432 -12.261  17.526  0.00  0.00    +0.000 A 
ATOM     14  C   UNL     1       0.632 -10.919  17.890  0.00  0.00    +0.000 A 
ATOM     15  C   UNL     1      -0.427 -10.023  17.820  0.00  0.00    +0.000 A 
ATOM     16  C   UNL     1      -1.642 -10.510  17.368  0.00  0.00    +0.000 A 
ATOM     17  N   UNL     1      -1.836 -11.784  16.925  0.00  0.00    +0.000 NA
ENDBRANCH  10  12
ENDBRANCH   7  10
ENDBRANCH   4   7
BRANCH   1  18
ATOM     18  N   UNL     1       1.211 -19.354  13.027  0.00  0.00    +0.000 N 
ATOM     19  H   UNL     1       0.707 -20.071  13.528  0.00  0.00    +0.000 HD
BRANCH  18  20
ATOM     20  C   UNL     1       2.638 -19.595  12.917  0.00  0.00    +0.000 C 
BRANCH  20  26
ATOM     21  O   UNL     1       1.342 -19.893  10.121  0.00  0.00    +0.000 OA
ATOM     22  C   UNL     1       2.302 -20.222  10.754  0.00  0.00    +0.000 C 
ATOM     23  N   UNL     1       3.109 -21.385  10.848  0.00  0.00    +0.000 NA
ATOM     24  C   UNL     1       4.311 -20.877  10.947  0.00  0.00    +0.000 A 
ATOM     25  C   UNL     1       4.203 -19.411  10.731  0.00  0.00    +0.000 A 
ATOM     26  C   UNL     1       3.083 -19.219  11.482  0.00  0.00    +0.000 C 
ATOM     27  C   UNL     1       4.356 -19.396   9.235  0.00  0.00    +0.000 A 
ATOM     28  S   UNL     1       3.253 -18.900   8.002  0.00  0.00    +0.000 S 
ATOM     29  C   UNL     1       4.292 -19.562   6.796  0.00  0.00    +0.000 A 
ATOM     30  N   UNL     1       5.316 -20.270   7.227  0.00  0.00    +0.000 NA
ATOM     31  C   UNL     1       5.279 -20.243   8.596  0.00  0.00    +0.000 A 
ATOM     32  C   UNL     1       6.103 -21.088   9.415  0.00  0.00    +0.000 A 
ATOM     33  C   UNL     1       5.699 -21.385  10.674  0.00  0.00    +0.000 A 
ENDBRANCH  20  26
ENDBRANCH  18  20
ENDBRANCH   1  18
TORSDOF 6
ENDMDL
MODEL 8
REMARK minimizedAffinity -6.91710234
REMARK minimizedRMSD -1
REMARK  Name = 
REMARK  6 active torsions:
REMARK  status: ('A' for Active; 'I' for Inactive)
REMARK    1  A    between atoms: C_6  and  C_7
REMARK    2  A    between atoms: C_7  and  N_8
REMARK    3  A    between atoms: N_8  and  C_9
REMARK    4  A    between atoms: C_12  and  S_15
REMARK    5  A    between atoms: S_15  and  N_18
REMARK    6  A    between atoms: N_18  and  C_19
REMARK                            x       y       z     vdW  Elec       q    Type
REMARK                         _______ _______ _______ _____ _____    ______ ____
ROOT
ATOM      1  C   UNL     1       0.921 -15.593  24.442  0.00  0.00    +0.000 A 
ATOM      2  C   UNL     1       1.371 -16.036  23.209  0.00  0.00    +0.000 A 
ATOM      3  C   UNL     1       0.786 -15.590  22.043  0.00  0.00    +0.000 A 
ATOM      4  C   UNL     1      -0.310 -14.765  22.039  0.00  0.00    +0.000 A 
ATOM      5  C   UNL     1      -0.650 -14.144  23.245  0.00  0.00    +0.000 A 
ATOM      6  C   UNL     1      -0.080 -14.613  24.452  0.00  0.00    +0.000 A 
ENDROOT
BRANCH   4   7
ATOM      7  S   UNL     1      -1.297 -14.602  20.568  0.00  0.00    +0.000 S 
ATOM      8  O   UNL     1      -1.273 -15.893  19.903  0.00  0.00    +0.000 OA
ATOM      9  O   UNL     1      -2.570 -14.068  21.013  0.00  0.00    +0.000 OA
BRANCH   7  10
ATOM     10  N   UNL     1      -0.679 -13.510  19.396  0.00  0.00    +0.000 N 
ATOM     11  H   UNL     1       0.090 -13.960  18.906  0.00  0.00    +0.000 HD
BRANCH  10  12
ATOM     12  C   UNL     1      -1.459 -12.640  18.580  0.00  0.00    +0.000 A 
ATOM     13  C   UNL     1      -1.062 -11.337  18.291  0.00  0.00    +0.000 A 
ATOM     14  C   UNL     1      -1.661 -10.674  17.208  0.00  0.00    +0.000 A 
ATOM     15  C   UNL     1      -2.739 -11.258  16.555  0.00  0.00    +0.000 A 
ATOM     16  C   UNL     1      -3.159 -12.497  17.006  0.00  0.00    +0.000 A 
ATOM     17  N   UNL     1      -2.537 -13.200  17.995  0.00  0.00    +0.000 NA
ENDBRANCH  10  12
ENDBRANCH   7  10
ENDBRANCH   4   7
BRANCH   1  18
ATOM     18  N   UNL     1       1.527 -16.090  25.597  0.00  0.00    +0.000 N 
ATOM     19  H   UNL     1       0.936 -16.639  26.204  0.00  0.00    +0.000 HD
BRANCH  18  20
ATOM     20  C   UNL     1       2.398 -15.160  26.293  0.00  0.00    +0.000 C 
BRANCH  20  26
ATOM     21  O   UNL     1       4.408 -17.502  26.539  0.00  0.00    +0.000 OA
ATOM     22  C   UNL     1       4.268 -16.348  26.819  0.00  0.00    +0.000 C 
ATOM     23  N   UNL     1       4.626 -15.514  27.910  0.00  0.00    +0.000 NA
ATOM     24  C   UNL     1       4.994 -14.414  27.304  0.00  0.00    +0.000 A 
ATOM     25  C   UNL     1       5.011 -14.684  25.844  0.00  0.00    +0.000 A 
ATOM     26  C   UNL     1       3.846 -15.388  25.796  0.00  0.00    +0.000 C 
ATOM     27  C   UNL     1       6.426 -15.182  25.727  0.00  0.00    +0.000 A 
ATOM     28  S   UNL     1       7.033 -16.729  25.259  0.00  0.00    +0.000 S 
ATOM     29  C   UNL     1       8.618 -16.266  25.754  0.00  0.00    +0.000 A 
ATOM     30  N   UNL     1       8.722 -15.118  26.393  0.00  0.00    +0.000 NA
ATOM     31  C   UNL     1       7.467 -14.573  26.451  0.00  0.00    +0.000 A 
ATOM     32  C   UNL     1       7.149 -13.433  27.266  0.00  0.00    +0.000 A 
ATOM     33  C   UNL     1       5.868 -13.247  27.672  0.00  0.00    +0.000 A 
ENDBRANCH  20  26
ENDBRANCH  18  20
ENDBRANCH   1  18
TORSDOF 6
ENDMDL
MODEL 9
REMARK minimizedAffinity -6.81517076
REMARK minimizedRMSD -1
REMARK  Name = 
REMARK  6 active torsions:
REMARK  status: ('A' for Active; 'I' for Inactive)
REMARK    1  A    between atoms: C_6  and  C_7
REMARK    2  A    between atoms: C_7  and  N_8
REMARK    3  A    between atoms: N_8  and  C_9
REMARK    4  A    between atoms: C_12  and  S_15
REMARK    5  A    between atoms: S_15  and  N_18
REMARK    6  A    between atoms: N_18  and  C_19
REMARK                            x       y       z     vdW  Elec       q    Type
REMARK                         _______ _______ _______ _____ _____    ______ ____
ROOT
ATOM      1  C   UNL     1       4.960 -15.187  33.026  0.00  0.00    +0.000 A 
ATOM      2  C   UNL     1       5.812 -15.489  31.977  0.00  0.00    +0.000 A 
ATOM      3  C   UNL     1       5.398 -15.351  30.669  0.00  0.00    +0.000 A 
ATOM      4  C   UNL     1       4.115 -14.996  30.339  0.00  0.00    +0.000 A 
ATOM      5  C   UNL     1       3.306 -14.489  31.360  0.00  0.00    +0.000 A 
ATOM      6  C   UNL     1       3.705 -14.652  32.708  0.00  0.00    +0.000 A 
ENDROOT
BRANCH   4   7
ATOM      7  S   UNL     1       3.508 -15.285  28.691  0.00  0.00    +0.000 S 
ATOM      8  O   UNL     1       4.061 -16.556  28.259  0.00  0.00    +0.000 OA
ATOM      9  O   UNL     1       2.068 -15.142  28.779  0.00  0.00    +0.000 OA
BRANCH   7  10
ATOM     10  N   UNL     1       4.050 -14.164  27.510  0.00  0.00    +0.000 N 
ATOM     11  H   UNL     1       3.412 -13.372  27.495  0.00  0.00    +0.000 HD
BRANCH  10  12
ATOM     12  C   UNL     1       5.409 -13.820  27.255  0.00  0.00    +0.000 A 
ATOM     13  C   UNL     1       6.045 -12.766  27.907  0.00  0.00    +0.000 A 
ATOM     14  C   UNL     1       7.448 -12.715  27.898  0.00  0.00    +0.000 A 
ATOM     15  C   UNL     1       8.163 -13.609  27.112  0.00  0.00    +0.000 A 
ATOM     16  C   UNL     1       7.437 -14.533  26.381  0.00  0.00    +0.000 A 
ATOM     17  N   UNL     1       6.082 -14.661  26.444  0.00  0.00    +0.000 NA
ENDBRANCH  10  12
ENDBRANCH   7  10
ENDBRANCH   4   7
BRANCH   1  18
ATOM     18  N   UNL     1       5.415 -15.365  34.334  0.00  0.00    +0.000 N 
ATOM     19  H   UNL     1       5.108 -16.208  34.796  0.00  0.00    +0.000 HD
BRANCH  18  20
ATOM     20  C   UNL     1       5.382 -14.179  35.171  0.00  0.00    +0.000 C 
BRANCH  20  26
ATOM     21  O   UNL     1       6.696 -11.705  36.490  0.00  0.00    +0.000 OA
ATOM     22  C   UNL     1       6.185 -12.070  35.473  0.00  0.00    +0.000 C 
ATOM     23  N   UNL     1       5.338 -11.488  34.494  0.00  0.00    +0.000 NA
ATOM     24  C   UNL     1       5.839 -11.964  33.382  0.00  0.00    +0.000 A 
ATOM     25  C   UNL     1       7.091 -12.686  33.721  0.00  0.00    +0.000 A 
ATOM     26  C   UNL     1       6.621 -13.314  34.834  0.00  0.00    +0.000 C 
ATOM     27  C   UNL     1       8.048 -11.530  33.617  0.00  0.00    +0.000 A 
ATOM     28  S   UNL     1       9.039 -10.786  34.820  0.00  0.00    +0.000 S 
ATOM     29  C   UNL     1       9.416  -9.506  33.728  0.00  0.00    +0.000 A 
ATOM     30  N   UNL     1       8.745  -9.483  32.595  0.00  0.00    +0.000 NA
ATOM     31  C   UNL     1       7.916 -10.573  32.595  0.00  0.00    +0.000 A 
ATOM     32  C   UNL     1       6.872 -10.758  31.626  0.00  0.00    +0.000 A 
ATOM     33  C   UNL     1       5.807 -11.536  31.941  0.00  0.00    +0.000 A 
ENDBRANCH  20  26
ENDBRANCH  18  20
ENDBRANCH   1  18
TORSDOF 6
ENDMDL
