MODEL 1
REMARK minimizedAffinity -4.59096289
REMARK minimizedRMSD -1
REMARK  Name = 
REMARK  7 active torsions:
REMARK  status: ('A' for Active; 'I' for Inactive)
REMARK    1  A    between atoms: C_1  and  C_2
REMARK    2  A    between atoms: C_2  and  N_3
REMARK    3  A    between atoms: N_3  and  C_4
REMARK    4  A    between atoms: N_7  and  N_8
REMARK    5  A    between atoms: N_13  and  C_14
REMARK    6  A    between atoms: C_14  and  C_15
REMARK    7  A    between atoms: C_14  and  C_16
REMARK                            x       y       z     vdW  Elec       q    Type
REMARK                         _______ _______ _______ _____ _____    ______ ____
ROOT
ATOM      1  C   UNL     1      11.486   0.573   2.141  0.00  0.00    +0.000 A 
ATOM      2  N   UNL     1      10.437   0.085   2.801  0.00  0.00    +0.000 NA
ATOM      3  C   UNL     1       9.698  -0.801   2.153  0.00  0.00    +0.000 A 
ATOM      4  N   UNL     1       8.624  -1.343   2.829  0.00  0.00    +0.000 N 
ATOM      5  N   UNL     1       9.927  -1.199   0.914  0.00  0.00    +0.000 NA
ATOM      6  C   UNL     1      10.986  -0.661   0.322  0.00  0.00    +0.000 A 
ATOM      7  N   UNL     1      11.786   0.240   0.884  0.00  0.00    +0.000 NA
ATOM      8  N   UNL     1      11.286  -1.070  -0.958  0.00  0.00    +0.000 N 
ATOM      9  H   UNL     1       8.537  -1.046   3.781  0.00  0.00    +0.000 HD
ATOM     10  H   UNL     1      12.127  -0.659  -1.330  0.00  0.00    +0.000 HD
ENDROOT
BRANCH   8  11
ATOM     11  C   UNL     1      10.490  -2.056  -1.656  0.00  0.00    +0.000 C 
ATOM     12  C   UNL     1      10.343  -1.655  -3.120  0.00  0.00    +0.000 C 
ATOM     13  C   UNL     1      11.142  -3.432  -1.561  0.00  0.00    +0.000 C 
ENDBRANCH   8  11
BRANCH   4  14
ATOM     14  N   UNL     1       7.817  -2.269   2.221  0.00  0.00    +0.000 NA
ATOM     15  N   UNL     1       7.208  -3.018   1.658  0.00  0.00    +0.000 NA
ENDBRANCH   4  14
BRANCH   1  16
ATOM     16  N   UNL     1      12.224   1.555   2.695  0.00  0.00    +0.000 NA
BRANCH  16  18
ATOM     17  C   UNL     1      14.172   0.359   3.768  0.00  0.00    +0.000 C 
ATOM     18  C   UNL     1      13.686   1.391   2.755  0.00  0.00    +0.000 C 
ENDBRANCH  16  18
ENDBRANCH   1  16
TORSDOF 4
ENDMDL
MODEL 2
REMARK minimizedAffinity -4.46269035
REMARK minimizedRMSD -1
REMARK  Name = 
REMARK  7 active torsions:
REMARK  status: ('A' for Active; 'I' for Inactive)
REMARK    1  A    between atoms: C_1  and  C_2
REMARK    2  A    between atoms: C_2  and  N_3
REMARK    3  A    between atoms: N_3  and  C_4
REMARK    4  A    between atoms: N_7  and  N_8
REMARK    5  A    between atoms: N_13  and  C_14
REMARK    6  A    between atoms: C_14  and  C_15
REMARK    7  A    between atoms: C_14  and  C_16
REMARK                            x       y       z     vdW  Elec       q    Type
REMARK                         _______ _______ _______ _____ _____    ______ ____
ROOT
ATOM      1  C   UNL     1       6.046  -2.213   0.114  0.00  0.00    +0.000 A 
ATOM      2  N   UNL     1       5.861  -3.375   0.738  0.00  0.00    +0.000 NA
ATOM      3  C   UNL     1       4.664  -3.572   1.267  0.00  0.00    +0.000 A 
ATOM      4  N   UNL     1       4.441  -4.783   1.891  0.00  0.00    +0.000 N 
ATOM      5  N   UNL     1       3.678  -2.695   1.228  0.00  0.00    +0.000 NA
ATOM      6  C   UNL     1       3.942  -1.558   0.595  0.00  0.00    +0.000 A 
ATOM      7  N   UNL     1       5.112  -1.262   0.037  0.00  0.00    +0.000 NA
ATOM      8  N   UNL     1       2.935  -0.625   0.499  0.00  0.00    +0.000 N 
ATOM      9  H   UNL     1       5.206  -5.427   1.837  0.00  0.00    +0.000 HD
ATOM     10  H   UNL     1       3.187   0.193  -0.033  0.00  0.00    +0.000 HD
ENDROOT
BRANCH   8  11
ATOM     11  C   UNL     1       1.620  -0.853   1.057  0.00  0.00    +0.000 C 
ATOM     12  C   UNL     1       1.151   0.397   1.794  0.00  0.00    +0.000 C 
ATOM     13  C   UNL     1       0.626  -1.205  -0.045  0.00  0.00    +0.000 C 
ENDBRANCH   8  11
BRANCH   4  14
ATOM     14  N   UNL     1       3.224  -5.058   2.459  0.00  0.00    +0.000 NA
ATOM     15  N   UNL     1       2.243  -5.362   2.897  0.00  0.00    +0.000 NA
ENDBRANCH   4  14
BRANCH   1  16
ATOM     16  N   UNL     1       7.267  -1.896  -0.357  0.00  0.00    +0.000 NA
BRANCH  16  18
ATOM     17  C   UNL     1       8.604  -1.133   1.645  0.00  0.00    +0.000 C 
ATOM     18  C   UNL     1       8.438  -2.132   0.504  0.00  0.00    +0.000 C 
ENDBRANCH  16  18
ENDBRANCH   1  16
TORSDOF 4
ENDMDL
MODEL 3
REMARK minimizedAffinity -4.41051006
REMARK minimizedRMSD -1
REMARK  Name = 
REMARK  7 active torsions:
REMARK  status: ('A' for Active; 'I' for Inactive)
REMARK    1  A    between atoms: C_1  and  C_2
REMARK    2  A    between atoms: C_2  and  N_3
REMARK    3  A    between atoms: N_3  and  C_4
REMARK    4  A    between atoms: N_7  and  N_8
REMARK    5  A    between atoms: N_13  and  C_14
REMARK    6  A    between atoms: C_14  and  C_15
REMARK    7  A    between atoms: C_14  and  C_16
REMARK                            x       y       z     vdW  Elec       q    Type
REMARK                         _______ _______ _______ _____ _____    ______ ____
ROOT
ATOM      1  C   UNL     1       1.145  -0.575   1.946  0.00  0.00    +0.000 A 
ATOM      2  N   UNL     1       0.422   0.500   1.636  0.00  0.00    +0.000 NA
ATOM      3  C   UNL     1      -0.892   0.356   1.685  0.00  0.00    +0.000 A 
ATOM      4  N   UNL     1      -1.661   1.467   1.398  0.00  0.00    +0.000 N 
ATOM      5  N   UNL     1      -1.508  -0.770   1.995  0.00  0.00    +0.000 NA
ATOM      6  C   UNL     1      -0.719  -1.798   2.284  0.00  0.00    +0.000 A 
ATOM      7  N   UNL     1       0.610  -1.757   2.257  0.00  0.00    +0.000 NA
ATOM      8  N   UNL     1      -1.314  -2.986   2.646  0.00  0.00    +0.000 N 
ATOM      9  H   UNL     1      -1.137   2.303   1.227  0.00  0.00    +0.000 HD
ATOM     10  H   UNL     1      -0.659  -3.709   2.897  0.00  0.00    +0.000 HD
ENDROOT
BRANCH   8  11
ATOM     11  C   UNL     1      -2.751  -3.133   2.722  0.00  0.00    +0.000 C 
ATOM     12  C   UNL     1      -3.226  -4.093   1.636  0.00  0.00    +0.000 C 
ATOM     13  C   UNL     1      -3.162  -3.662   4.093  0.00  0.00    +0.000 C 
ENDBRANCH   8  11
BRANCH   4  14
ATOM     14  N   UNL     1      -3.029   1.392   1.432  0.00  0.00    +0.000 NA
ATOM     15  N   UNL     1      -4.144   1.372   1.386  0.00  0.00    +0.000 NA
ENDBRANCH   4  14
BRANCH   1  16
ATOM     16  N   UNL     1       2.485  -0.537   1.818  0.00  0.00    +0.000 NA
BRANCH  16  18
ATOM     17  C   UNL     1       3.377  -0.994  -0.501  0.00  0.00    +0.000 C 
ATOM     18  C   UNL     1       3.135  -1.504   0.917  0.00  0.00    +0.000 C 
ENDBRANCH  16  18
ENDBRANCH   1  16
TORSDOF 4
ENDMDL
MODEL 4
REMARK minimizedAffinity -4.32818413
REMARK minimizedRMSD -1
REMARK  Name = 
REMARK  7 active torsions:
REMARK  status: ('A' for Active; 'I' for Inactive)
REMARK    1  A    between atoms: C_1  and  C_2
REMARK    2  A    between atoms: C_2  and  N_3
REMARK    3  A    between atoms: N_3  and  C_4
REMARK    4  A    between atoms: N_7  and  N_8
REMARK    5  A    between atoms: N_13  and  C_14
REMARK    6  A    between atoms: C_14  and  C_15
REMARK    7  A    between atoms: C_14  and  C_16
REMARK                            x       y       z     vdW  Elec       q    Type
REMARK                         _______ _______ _______ _____ _____    ______ ____
ROOT
ATOM      1  C   UNL     1       9.436 -13.516  -1.507  0.00  0.00    +0.000 A 
ATOM      2  N   UNL     1       9.636 -14.768  -1.099  0.00  0.00    +0.000 NA
ATOM      3  C   UNL     1      10.896 -15.150  -0.973  0.00  0.00    +0.000 A 
ATOM      4  N   UNL     1      11.126 -16.434  -0.522  0.00  0.00    +0.000 N 
ATOM      5  N   UNL     1      11.938 -14.384  -1.243  0.00  0.00    +0.000 NA
ATOM      6  C   UNL     1      11.657 -13.152  -1.651  0.00  0.00    +0.000 A 
ATOM      7  N   UNL     1      10.426 -12.676  -1.815  0.00  0.00    +0.000 NA
ATOM      8  N   UNL     1      12.710 -12.304  -1.913  0.00  0.00    +0.000 N 
ATOM      9  H   UNL     1      10.299 -16.945  -0.280  0.00  0.00    +0.000 HD
ATOM     10  H   UNL     1      12.427 -11.373  -2.172  0.00  0.00    +0.000 HD
ENDROOT
BRANCH   8  11
ATOM     11  C   UNL     1      14.087 -12.716  -1.752  0.00  0.00    +0.000 C 
ATOM     12  C   UNL     1      14.872 -12.391  -3.018  0.00  0.00    +0.000 C 
ATOM     13  C   UNL     1      14.719 -12.009  -0.557  0.00  0.00    +0.000 C 
ENDBRANCH   8  11
BRANCH   4  14
ATOM     14  N   UNL     1      12.407 -16.897  -0.364  0.00  0.00    +0.000 NA
ATOM     15  N   UNL     1      13.419 -17.334  -0.187  0.00  0.00    +0.000 NA
ENDBRANCH   4  14
BRANCH   1  16
ATOM     16  N   UNL     1       8.184 -13.088  -1.759  0.00  0.00    +0.000 NA
BRANCH  16  18
ATOM     17  C   UNL     1       7.479 -10.687  -1.421  0.00  0.00    +0.000 C 
ATOM     18  C   UNL     1       7.581 -12.098  -0.851  0.00  0.00    +0.000 C 
ENDBRANCH  16  18
ENDBRANCH   1  16
TORSDOF 4
ENDMDL
MODEL 5
REMARK minimizedAffinity -4.32699585
REMARK minimizedRMSD -1
REMARK  Name = 
REMARK  7 active torsions:
REMARK  status: ('A' for Active; 'I' for Inactive)
REMARK    1  A    between atoms: C_1  and  C_2
REMARK    2  A    between atoms: C_2  and  N_3
REMARK    3  A    between atoms: N_3  and  C_4
REMARK    4  A    between atoms: N_7  and  N_8
REMARK    5  A    between atoms: N_13  and  C_14
REMARK    6  A    between atoms: C_14  and  C_15
REMARK    7  A    between atoms: C_14  and  C_16
REMARK                            x       y       z     vdW  Elec       q    Type
REMARK                         _______ _______ _______ _____ _____    ______ ____
ROOT
ATOM      1  C   UNL     1      -1.166 -13.003  15.324  0.00  0.00    +0.000 A 
ATOM      2  N   UNL     1      -0.137 -13.827  15.519  0.00  0.00    +0.000 NA
ATOM      3  C   UNL     1      -0.033 -14.843  14.677  0.00  0.00    +0.000 A 
ATOM      4  N   UNL     1       1.044 -15.691  14.842  0.00  0.00    +0.000 N 
ATOM      5  N   UNL     1      -0.882 -15.088  13.696  0.00  0.00    +0.000 NA
ATOM      6  C   UNL     1      -1.884 -14.227  13.572  0.00  0.00    +0.000 A 
ATOM      7  N   UNL     1      -2.080 -13.180  14.368  0.00  0.00    +0.000 NA
ATOM      8  N   UNL     1      -2.777 -14.422  12.542  0.00  0.00    +0.000 N 
ATOM      9  H   UNL     1       1.682 -15.420  15.564  0.00  0.00    +0.000 HD
ATOM     10  H   UNL     1      -3.484 -13.707  12.477  0.00  0.00    +0.000 HD
ENDROOT
BRANCH   8  11
ATOM     11  C   UNL     1      -2.647 -15.519  11.609  0.00  0.00    +0.000 C 
ATOM     12  C   UNL     1      -3.568 -16.661  12.028  0.00  0.00    +0.000 C 
ATOM     13  C   UNL     1      -3.001 -15.064  10.197  0.00  0.00    +0.000 C 
ENDBRANCH   8  11
BRANCH   4  14
ATOM     14  N   UNL     1       1.218 -16.763  14.005  0.00  0.00    +0.000 NA
ATOM     15  N   UNL     1       1.411 -17.668  13.381  0.00  0.00    +0.000 NA
ENDBRANCH   4  14
BRANCH   1  16
ATOM     16  N   UNL     1      -1.398 -12.008  16.202  0.00  0.00    +0.000 NA
BRANCH  16  18
ATOM     17  C   UNL     1      -0.613 -10.142  17.712  0.00  0.00    +0.000 C 
ATOM     18  C   UNL     1      -0.254 -11.229  16.703  0.00  0.00    +0.000 C 
ENDBRANCH  16  18
ENDBRANCH   1  16
TORSDOF 4
ENDMDL
MODEL 6
REMARK minimizedAffinity -4.26997948
REMARK minimizedRMSD -1
REMARK  Name = 
REMARK  7 active torsions:
REMARK  status: ('A' for Active; 'I' for Inactive)
REMARK    1  A    between atoms: C_1  and  C_2
REMARK    2  A    between atoms: C_2  and  N_3
REMARK    3  A    between atoms: N_3  and  C_4
REMARK    4  A    between atoms: N_7  and  N_8
REMARK    5  A    between atoms: N_13  and  C_14
REMARK    6  A    between atoms: C_14  and  C_15
REMARK    7  A    between atoms: C_14  and  C_16
REMARK                            x       y       z     vdW  Elec       q    Type
REMARK                         _______ _______ _______ _____ _____    ______ ____
ROOT
ATOM      1  C   UNL     1       3.540  -2.933   1.275  0.00  0.00    +0.000 A 
ATOM      2  N   UNL     1       2.258  -2.589   1.378  0.00  0.00    +0.000 NA
ATOM      3  C   UNL     1       1.463  -3.463   1.974  0.00  0.00    +0.000 A 
ATOM      4  N   UNL     1       0.135  -3.114   2.119  0.00  0.00    +0.000 N 
ATOM      5  N   UNL     1       1.859  -4.634   2.439  0.00  0.00    +0.000 NA
ATOM      6  C   UNL     1       3.149  -4.907   2.292  0.00  0.00    +0.000 A 
ATOM      7  N   UNL     1       4.027  -4.099   1.703  0.00  0.00    +0.000 NA
ATOM      8  N   UNL     1       3.617  -6.102   2.791  0.00  0.00    +0.000 N 
ATOM      9  H   UNL     1      -0.091  -2.192   1.800  0.00  0.00    +0.000 HD
ATOM     10  H   UNL     1       4.612  -6.224   2.688  0.00  0.00    +0.000 HD
ENDROOT
BRANCH   8  11
ATOM     11  C   UNL     1       2.751  -7.045   3.463  0.00  0.00    +0.000 C 
ATOM     12  C   UNL     1       2.282  -8.107   2.474  0.00  0.00    +0.000 C 
ATOM     13  C   UNL     1       3.485  -7.711   4.623  0.00  0.00    +0.000 C 
ENDBRANCH   8  11
BRANCH   4  14
ATOM     14  N   UNL     1      -0.745  -3.969   2.730  0.00  0.00    +0.000 NA
ATOM     15  N   UNL     1      -1.405  -4.727   3.217  0.00  0.00    +0.000 NA
ENDBRANCH   4  14
BRANCH   1  16
ATOM     16  N   UNL     1       4.389  -2.143   0.589  0.00  0.00    +0.000 NA
BRANCH  16  18
ATOM     17  C   UNL     1       3.719  -1.053  -1.589  0.00  0.00    +0.000 C 
ATOM     18  C   UNL     1       3.854  -0.941  -0.074  0.00  0.00    +0.000 C 
ENDBRANCH  16  18
ENDBRANCH   1  16
TORSDOF 4
ENDMDL
MODEL 7
REMARK minimizedAffinity -4.24158859
REMARK minimizedRMSD -1
REMARK  Name = 
REMARK  7 active torsions:
REMARK  status: ('A' for Active; 'I' for Inactive)
REMARK    1  A    between atoms: C_1  and  C_2
REMARK    2  A    between atoms: C_2  and  N_3
REMARK    3  A    between atoms: N_3  and  C_4
REMARK    4  A    between atoms: N_7  and  N_8
REMARK    5  A    between atoms: N_13  and  C_14
REMARK    6  A    between atoms: C_14  and  C_15
REMARK    7  A    between atoms: C_14  and  C_16
REMARK                            x       y       z     vdW  Elec       q    Type
REMARK                         _______ _______ _______ _____ _____    ______ ____
ROOT
ATOM      1  C   UNL     1      13.686   2.220   0.952  0.00  0.00    +0.000 A 
ATOM      2  N   UNL     1      12.621   2.639   0.270  0.00  0.00    +0.000 NA
ATOM      3  C   UNL     1      12.837   3.015  -0.980  0.00  0.00    +0.000 A 
ATOM      4  N   UNL     1      11.742   3.422  -1.715  0.00  0.00    +0.000 N 
ATOM      5  N   UNL     1      14.021   3.017  -1.564  0.00  0.00    +0.000 NA
ATOM      6  C   UNL     1      15.034   2.595  -0.817  0.00  0.00    +0.000 A 
ATOM      7  N   UNL     1      14.922   2.203   0.450  0.00  0.00    +0.000 NA
ATOM      8  N   UNL     1      16.284   2.548  -1.391  0.00  0.00    +0.000 N 
ATOM      9  H   UNL     1      10.865   3.342  -1.237  0.00  0.00    +0.000 HD
ATOM     10  H   UNL     1      16.996   2.174  -0.785  0.00  0.00    +0.000 HD
ENDROOT
BRANCH   8  11
ATOM     11  C   UNL     1      16.513   2.937  -2.765  0.00  0.00    +0.000 C 
ATOM     12  C   UNL     1      17.866   3.630  -2.884  0.00  0.00    +0.000 C 
ATOM     13  C   UNL     1      16.477   1.716  -3.679  0.00  0.00    +0.000 C 
ENDBRANCH   8  11
BRANCH   4  14
ATOM     14  N   UNL     1      11.889   3.822  -3.018  0.00  0.00    +0.000 NA
ATOM     15  N   UNL     1      11.930   4.125  -4.092  0.00  0.00    +0.000 NA
ENDBRANCH   4  14
BRANCH   1  16
ATOM     16  N   UNL     1      13.564   1.921   2.260  0.00  0.00    +0.000 NA
BRANCH  16  18
ATOM     17  C   UNL     1      12.868  -0.087   3.624  0.00  0.00    +0.000 C 
ATOM     18  C   UNL     1      12.461   1.042   2.683  0.00  0.00    +0.000 C 
ENDBRANCH  16  18
ENDBRANCH   1  16
TORSDOF 4
ENDMDL
MODEL 8
REMARK minimizedAffinity -4.24092674
REMARK minimizedRMSD -1
REMARK  Name = 
REMARK  7 active torsions:
REMARK  status: ('A' for Active; 'I' for Inactive)
REMARK    1  A    between atoms: C_1  and  C_2
REMARK    2  A    between atoms: C_2  and  N_3
REMARK    3  A    between atoms: N_3  and  C_4
REMARK    4  A    between atoms: N_7  and  N_8
REMARK    5  A    between atoms: N_13  and  C_14
REMARK    6  A    between atoms: C_14  and  C_15
REMARK    7  A    between atoms: C_14  and  C_16
REMARK                            x       y       z     vdW  Elec       q    Type
REMARK                         _______ _______ _______ _____ _____    ______ ____
ROOT
ATOM      1  C   UNL     1      13.053   2.108   1.255  0.00  0.00    +0.000 A 
ATOM      2  N   UNL     1      14.357   2.192   1.001  0.00  0.00    +0.000 NA
ATOM      3  C   UNL     1      14.694   2.521  -0.236  0.00  0.00    +0.000 A 
ATOM      4  N   UNL     1      16.040   2.644  -0.513  0.00  0.00    +0.000 N 
ATOM      5  N   UNL     1      13.829   2.743  -1.209  0.00  0.00    +0.000 NA
ATOM      6  C   UNL     1      12.548   2.631  -0.880  0.00  0.00    +0.000 A 
ATOM      7  N   UNL     1      12.109   2.301   0.331  0.00  0.00    +0.000 NA
ATOM      8  N   UNL     1      11.607   2.886  -1.852  0.00  0.00    +0.000 N 
ATOM      9  H   UNL     1      16.642   2.521   0.278  0.00  0.00    +0.000 HD
ATOM     10  H   UNL     1      10.657   2.830  -1.523  0.00  0.00    +0.000 HD
ENDROOT
BRANCH   8  11
ATOM     11  C   UNL     1      11.977   3.269  -3.197  0.00  0.00    +0.000 C 
ATOM     12  C   UNL     1      12.041   2.030  -4.084  0.00  0.00    +0.000 C 
ATOM     13  C   UNL     1      10.966   4.259  -3.767  0.00  0.00    +0.000 C 
ENDBRANCH   8  11
BRANCH   4  14
ATOM     14  N   UNL     1      16.462   2.986  -1.772  0.00  0.00    +0.000 NA
ATOM     15  N   UNL     1      16.882   3.241  -2.775  0.00  0.00    +0.000 NA
ENDBRANCH   4  14
BRANCH   1  16
ATOM     16  N   UNL     1      12.635   1.676   2.461  0.00  0.00    +0.000 NA
BRANCH  16  18
ATOM     17  C   UNL     1      12.961  -0.294   4.007  0.00  0.00    +0.000 C 
ATOM     18  C   UNL     1      12.453   0.229   2.668  0.00  0.00    +0.000 C 
ENDBRANCH  16  18
ENDBRANCH   1  16
TORSDOF 4
ENDMDL
MODEL 9
REMARK minimizedAffinity -4.20823288
REMARK minimizedRMSD -1
REMARK  Name = 
REMARK  7 active torsions:
REMARK  status: ('A' for Active; 'I' for Inactive)
REMARK    1  A    between atoms: C_1  and  C_2
REMARK    2  A    between atoms: C_2  and  N_3
REMARK    3  A    between atoms: N_3  and  C_4
REMARK    4  A    between atoms: N_7  and  N_8
REMARK    5  A    between atoms: N_13  and  C_14
REMARK    6  A    between atoms: C_14  and  C_15
REMARK    7  A    between atoms: C_14  and  C_16
REMARK                            x       y       z     vdW  Elec       q    Type
REMARK                         _______ _______ _______ _____ _____    ______ ____
ROOT
ATOM      1  C   UNL     1       1.956  -5.529   2.608  0.00  0.00    +0.000 A 
ATOM      2  N   UNL     1       0.791  -5.828   3.181  0.00  0.00    +0.000 NA
ATOM      3  C   UNL     1      -0.100  -4.851   3.240  0.00  0.00    +0.000 A 
ATOM      4  N   UNL     1      -1.327  -5.148   3.800  0.00  0.00    +0.000 N 
ATOM      5  N   UNL     1       0.106  -3.626   2.793  0.00  0.00    +0.000 NA
ATOM      6  C   UNL     1       1.294  -3.404   2.244  0.00  0.00    +0.000 A 
ATOM      7  N   UNL     1       2.258  -4.315   2.143  0.00  0.00    +0.000 NA
ATOM      8  N   UNL     1       1.545  -2.151   1.733  0.00  0.00    +0.000 N 
ATOM      9  H   UNL     1      -1.443  -6.106   4.066  0.00  0.00    +0.000 HD
ATOM     10  H   UNL     1       2.445  -2.065   1.290  0.00  0.00    +0.000 HD
ENDROOT
BRANCH   8  11
ATOM     11  C   UNL     1       0.561  -1.092   1.778  0.00  0.00    +0.000 C 
ATOM     12  C   UNL     1       1.255   0.246   2.010  0.00  0.00    +0.000 C 
ATOM     13  C   UNL     1      -0.229  -1.043   0.474  0.00  0.00    +0.000 C 
ENDBRANCH   8  11
BRANCH   4  14
ATOM     14  N   UNL     1      -2.299  -4.186   3.892  0.00  0.00    +0.000 NA
ATOM     15  N   UNL     1      -3.101  -3.425   4.046  0.00  0.00    +0.000 NA
ENDBRANCH   4  14
BRANCH   1  16
ATOM     16  N   UNL     1       2.949  -6.439   2.606  0.00  0.00    +0.000 NA
BRANCH  16  18
ATOM     17  C   UNL     1       3.469  -7.834   4.646  0.00  0.00    +0.000 C 
ATOM     18  C   UNL     1       2.740  -7.714   3.311  0.00  0.00    +0.000 C 
ENDBRANCH  16  18
ENDBRANCH   1  16
TORSDOF 4
ENDMDL
