MODEL 1
REMARK minimizedAffinity -6.15722704
REMARK minimizedRMSD -1
REMARK  Name = 
REMARK  4 active torsions:
REMARK  status: ('A' for Active; 'I' for Inactive)
REMARK    1  A    between atoms: N_2  and  C_3
REMARK    2  A    between atoms: C_6  and  N_7
REMARK    3  A    between atoms: N_7  and  O_8
REMARK    4  A    between atoms: N_7  and  O_9
REMARK                            x       y       z     vdW  Elec       q    Type
REMARK                         _______ _______ _______ _____ _____    ______ ____
ROOT
ATOM      1  C   UNL     1      -1.896 -15.357  18.785  0.00  0.00    +0.000 C 
ATOM      2  C   UNL     1      -1.174 -14.718  17.877  0.00  0.00    +0.000 A 
ATOM      3  C   UNL     1      -0.833 -15.077  16.541  0.00  0.00    +0.000 A 
ATOM      4  C   UNL     1      -0.205 -14.180  15.758  0.00  0.00    +0.000 A 
ATOM      5  C   UNL     1       0.030 -12.841  16.417  0.00  0.00    +0.000 A 
ATOM      6  C   UNL     1       0.132 -12.494  17.735  0.00  0.00    +0.000 A 
ATOM      7  C   UNL     1      -0.726 -13.462  18.536  0.00  0.00    +0.000 A 
ATOM      8  N   UNL     1      -1.256 -13.298  19.700  0.00  0.00    +0.000 NA
ATOM      9  C   UNL     1      -2.044 -14.431  19.951  0.00  0.00    +0.000 C 
ATOM     10  O   UNL     1      -2.720 -14.621  20.916  0.00  0.00    +0.000 OA
ATOM     11  C   UNL     1       0.195 -10.850  18.050  0.00  0.00    +0.000 C 
ATOM     12  C   UNL     1      -1.071 -10.042  17.594  0.00  0.00    +0.000 C 
ATOM     13  C   UNL     1      -1.931 -11.093  16.916  0.00  0.00    +0.000 C 
ATOM     14  C   UNL     1      -0.629 -11.628  15.848  0.00  0.00    +0.000 C 
ENDROOT
BRANCH   1  16
ATOM     15  O   UNL     1      -1.711 -17.461  19.330  0.00  0.00    +0.000 OA
ATOM     16  N   UNL     1      -2.331 -16.609  18.693  0.00  0.00    +0.000 NA
ENDBRANCH   1  16
BRANCH   4  17
ATOM     17  N   UNL     1       0.145 -14.472  14.418  0.00  0.00    +0.000 N 
BRANCH  17  18
ATOM     18  O   UNL     1      -0.731 -14.362  13.331  0.00  0.00    +0.000 OA
ATOM     19  H   UNL     1      -1.541 -13.951  13.666  0.00  0.00    +0.000 HD
ENDBRANCH  17  18
BRANCH  17  20
ATOM     20  O   UNL     1       1.324 -15.111  14.085  0.00  0.00    +0.000 OA
ATOM     21  H   UNL     1       1.192 -15.234  13.121  0.00  0.00    +0.000 HD
ENDBRANCH  17  20
ENDBRANCH   4  17
TORSDOF 4
ENDMDL
MODEL 2
REMARK minimizedAffinity -5.69196463
REMARK minimizedRMSD -1
REMARK  Name = 
REMARK  4 active torsions:
REMARK  status: ('A' for Active; 'I' for Inactive)
REMARK    1  A    between atoms: N_2  and  C_3
REMARK    2  A    between atoms: C_6  and  N_7
REMARK    3  A    between atoms: N_7  and  O_8
REMARK    4  A    between atoms: N_7  and  O_9
REMARK                            x       y       z     vdW  Elec       q    Type
REMARK                         _______ _______ _______ _____ _____    ______ ____
ROOT
ATOM      1  C   UNL     1      -3.740 -15.428  16.538  0.00  0.00    +0.000 C 
ATOM      2  C   UNL     1      -2.508 -14.965  16.387  0.00  0.00    +0.000 A 
ATOM      3  C   UNL     1      -1.558 -15.179  15.347  0.00  0.00    +0.000 A 
ATOM      4  C   UNL     1      -0.413 -14.470  15.346  0.00  0.00    +0.000 A 
ATOM      5  C   UNL     1      -0.302 -13.472  16.475  0.00  0.00    +0.000 A 
ATOM      6  C   UNL     1      -0.895 -13.440  17.706  0.00  0.00    +0.000 A 
ATOM      7  C   UNL     1      -2.248 -14.126  17.587  0.00  0.00    +0.000 A 
ATOM      8  N   UNL     1      -3.292 -13.984  18.328  0.00  0.00    +0.000 NA
ATOM      9  C   UNL     1      -4.313 -14.747  17.741  0.00  0.00    +0.000 C 
ATOM     10  O   UNL     1      -5.440 -14.832  18.125  0.00  0.00    +0.000 OA
ATOM     11  C   UNL     1      -0.655 -12.036  18.589  0.00  0.00    +0.000 C 
ATOM     12  C   UNL     1      -1.213 -10.732  17.920  0.00  0.00    +0.000 C 
ATOM     13  C   UNL     1      -1.743 -11.222  16.585  0.00  0.00    +0.000 C 
ATOM     14  C   UNL     1      -0.226 -12.016  16.151  0.00  0.00    +0.000 C 
ENDROOT
BRANCH   1  16
ATOM     15  O   UNL     1      -4.182 -17.535  16.187  0.00  0.00    +0.000 OA
ATOM     16  N   UNL     1      -4.313 -16.372  15.800  0.00  0.00    +0.000 NA
ENDBRANCH   1  16
BRANCH   4  17
ATOM     17  N   UNL     1       0.562 -14.624  14.331  0.00  0.00    +0.000 N 
BRANCH  17  18
ATOM     18  O   UNL     1       0.583 -13.892  13.138  0.00  0.00    +0.000 OA
ATOM     19  H   UNL     1      -0.105 -13.215  13.214  0.00  0.00    +0.000 HD
ENDBRANCH  17  18
BRANCH  17  20
ATOM     20  O   UNL     1       1.458 -15.675  14.323  0.00  0.00    +0.000 OA
ATOM     21  H   UNL     1       1.897 -15.527  13.458  0.00  0.00    +0.000 HD
ENDBRANCH  17  20
ENDBRANCH   4  17
TORSDOF 4
ENDMDL
MODEL 3
REMARK minimizedAffinity -5.68990135
REMARK minimizedRMSD -1
REMARK  Name = 
REMARK  4 active torsions:
REMARK  status: ('A' for Active; 'I' for Inactive)
REMARK    1  A    between atoms: N_2  and  C_3
REMARK    2  A    between atoms: C_6  and  N_7
REMARK    3  A    between atoms: N_7  and  O_8
REMARK    4  A    between atoms: N_7  and  O_9
REMARK                            x       y       z     vdW  Elec       q    Type
REMARK                         _______ _______ _______ _____ _____    ______ ____
ROOT
ATOM      1  C   UNL     1      13.825 -11.622  -1.756  0.00  0.00    +0.000 C 
ATOM      2  C   UNL     1      13.160 -12.766  -1.707  0.00  0.00    +0.000 A 
ATOM      3  C   UNL     1      13.346 -13.912  -0.880  0.00  0.00    +0.000 A 
ATOM      4  C   UNL     1      12.436 -14.904  -0.917  0.00  0.00    +0.000 A 
ATOM      5  C   UNL     1      11.270 -14.640  -1.841  0.00  0.00    +0.000 A 
ATOM      6  C   UNL     1      11.159 -13.836  -2.941  0.00  0.00    +0.000 A 
ATOM      7  C   UNL     1      12.107 -12.661  -2.752  0.00  0.00    +0.000 A 
ATOM      8  N   UNL     1      12.057 -11.489  -3.287  0.00  0.00    +0.000 NA
ATOM      9  C   UNL     1      13.088 -10.734  -2.709  0.00  0.00    +0.000 C 
ATOM     10  O   UNL     1      13.330  -9.586  -2.929  0.00  0.00    +0.000 OA
ATOM     11  C   UNL     1       9.614 -13.674  -3.568  0.00  0.00    +0.000 C 
ATOM     12  C   UNL     1       8.567 -13.038  -2.588  0.00  0.00    +0.000 C 
ATOM     13  C   UNL     1       9.356 -12.850  -1.307  0.00  0.00    +0.000 C 
ATOM     14  C   UNL     1       9.897 -14.531  -1.263  0.00  0.00    +0.000 C 
ENDROOT
BRANCH   1  16
ATOM     15  O   UNL     1      16.004 -11.693  -1.708  0.00  0.00    +0.000 OA
ATOM     16  N   UNL     1      14.968 -11.358  -1.133  0.00  0.00    +0.000 NA
ENDBRANCH   1  16
BRANCH   4  17
ATOM     17  N   UNL     1      12.555 -16.059  -0.108  0.00  0.00    +0.000 N 
BRANCH  17  18
ATOM     18  O   UNL     1      11.684 -17.154  -0.160  0.00  0.00    +0.000 OA
ATOM     19  H   UNL     1      11.093 -17.005  -0.912  0.00  0.00    +0.000 HD
ENDBRANCH  17  18
BRANCH  17  20
ATOM     20  O   UNL     1      13.413 -16.117   0.973  0.00  0.00    +0.000 OA
ATOM     21  H   UNL     1      13.170 -16.991   1.346  0.00  0.00    +0.000 HD
ENDBRANCH  17  20
ENDBRANCH   4  17
TORSDOF 4
ENDMDL
MODEL 4
REMARK minimizedAffinity -5.49048233
REMARK minimizedRMSD -1
REMARK  Name = 
REMARK  4 active torsions:
REMARK  status: ('A' for Active; 'I' for Inactive)
REMARK    1  A    between atoms: N_2  and  C_3
REMARK    2  A    between atoms: C_6  and  N_7
REMARK    3  A    between atoms: N_7  and  O_8
REMARK    4  A    between atoms: N_7  and  O_9
REMARK                            x       y       z     vdW  Elec       q    Type
REMARK                         _______ _______ _______ _____ _____    ______ ____
ROOT
ATOM      1  C   UNL     1       5.419 -13.156  31.968  0.00  0.00    +0.000 C 
ATOM      2  C   UNL     1       5.750 -12.336  30.982  0.00  0.00    +0.000 A 
ATOM      3  C   UNL     1       5.896 -10.918  30.964  0.00  0.00    +0.000 A 
ATOM      4  C   UNL     1       6.392 -10.322  29.863  0.00  0.00    +0.000 A 
ATOM      5  C   UNL     1       6.781 -11.281  28.762  0.00  0.00    +0.000 A 
ATOM      6  C   UNL     1       6.349 -12.546  28.478  0.00  0.00    +0.000 A 
ATOM      7  C   UNL     1       5.950 -13.204  29.791  0.00  0.00    +0.000 A 
ATOM      8  N   UNL     1       5.881 -14.459  30.076  0.00  0.00    +0.000 NA
ATOM      9  C   UNL     1       5.576 -14.549  31.442  0.00  0.00    +0.000 C 
ATOM     10  O   UNL     1       5.469 -15.554  32.077  0.00  0.00    +0.000 OA
ATOM     11  C   UNL     1       7.191 -13.347  27.272  0.00  0.00    +0.000 C 
ATOM     12  C   UNL     1       8.713 -13.579  27.572  0.00  0.00    +0.000 C 
ATOM     13  C   UNL     1       8.917 -12.884  28.906  0.00  0.00    +0.000 C 
ATOM     14  C   UNL     1       8.213 -11.363  28.345  0.00  0.00    +0.000 C 
ENDROOT
BRANCH   1  16
ATOM     15  O   UNL     1       3.741 -12.768  33.305  0.00  0.00    +0.000 OA
ATOM     16  N   UNL     1       4.964 -12.794  33.162  0.00  0.00    +0.000 NA
ENDBRANCH   1  16
BRANCH   4  17
ATOM     17  N   UNL     1       6.577  -8.921  29.790  0.00  0.00    +0.000 N 
BRANCH  17  18
ATOM     18  O   UNL     1       7.807  -8.276  29.961  0.00  0.00    +0.000 OA
ATOM     19  H   UNL     1       8.480  -8.969  30.015  0.00  0.00    +0.000 HD
ENDBRANCH  17  18
BRANCH  17  20
ATOM     20  O   UNL     1       5.515  -8.037  29.766  0.00  0.00    +0.000 OA
ATOM     21  H   UNL     1       5.994  -7.183  29.815  0.00  0.00    +0.000 HD
ENDBRANCH  17  20
ENDBRANCH   4  17
TORSDOF 4
ENDMDL
MODEL 5
REMARK minimizedAffinity -5.41287327
REMARK minimizedRMSD -1
REMARK  Name = 
REMARK  4 active torsions:
REMARK  status: ('A' for Active; 'I' for Inactive)
REMARK    1  A    between atoms: N_2  and  C_3
REMARK    2  A    between atoms: C_6  and  N_7
REMARK    3  A    between atoms: N_7  and  O_8
REMARK    4  A    between atoms: N_7  and  O_9
REMARK                            x       y       z     vdW  Elec       q    Type
REMARK                         _______ _______ _______ _____ _____    ______ ____
ROOT
ATOM      1  C   UNL     1       0.225  -1.233   2.175  0.00  0.00    +0.000 C 
ATOM      2  C   UNL     1      -0.202  -2.471   2.368  0.00  0.00    +0.000 A 
ATOM      3  C   UNL     1       0.465  -3.609   2.907  0.00  0.00    +0.000 A 
ATOM      4  C   UNL     1      -0.238  -4.734   3.141  0.00  0.00    +0.000 A 
ATOM      5  C   UNL     1      -1.710  -4.621   2.822  0.00  0.00    +0.000 A 
ATOM      6  C   UNL     1      -2.384  -3.794   1.967  0.00  0.00    +0.000 A 
ATOM      7  C   UNL     1      -1.605  -2.490   1.876  0.00  0.00    +0.000 A 
ATOM      8  N   UNL     1      -2.029  -1.319   1.545  0.00  0.00    +0.000 NA
ATOM      9  C   UNL     1      -0.956  -0.433   1.723  0.00  0.00    +0.000 C 
ATOM     10  O   UNL     1      -0.981   0.748   1.554  0.00  0.00    +0.000 OA
ATOM     11  C   UNL     1      -4.055  -3.858   2.062  0.00  0.00    +0.000 C 
ATOM     12  C   UNL     1      -4.653  -3.450   3.454  0.00  0.00    +0.000 C 
ATOM     13  C   UNL     1      -3.422  -3.196   4.303  0.00  0.00    +0.000 C 
ATOM     14  C   UNL     1      -2.704  -4.766   3.928  0.00  0.00    +0.000 C 
ENDROOT
BRANCH   1  16
ATOM     15  O   UNL     1       2.088  -0.582   1.246  0.00  0.00    +0.000 OA
ATOM     16  N   UNL     1       1.481  -0.815   2.292  0.00  0.00    +0.000 NA
ENDBRANCH   1  16
BRANCH   4  17
ATOM     17  N   UNL     1       0.363  -5.891   3.691  0.00  0.00    +0.000 N 
BRANCH  17  18
ATOM     18  O   UNL     1       0.557  -7.089   2.993  0.00  0.00    +0.000 OA
ATOM     19  H   UNL     1       0.314  -6.918   2.072  0.00  0.00    +0.000 HD
ENDBRANCH  17  18
BRANCH  17  20
ATOM     20  O   UNL     1       0.612  -6.021   5.044  0.00  0.00    +0.000 OA
ATOM     21  H   UNL     1       0.927  -6.949   5.078  0.00  0.00    +0.000 HD
ENDBRANCH  17  20
ENDBRANCH   4  17
TORSDOF 4
ENDMDL
MODEL 6
REMARK minimizedAffinity -5.37726736
REMARK minimizedRMSD -1
REMARK  Name = 
REMARK  4 active torsions:
REMARK  status: ('A' for Active; 'I' for Inactive)
REMARK    1  A    between atoms: N_2  and  C_3
REMARK    2  A    between atoms: C_6  and  N_7
REMARK    3  A    between atoms: N_7  and  O_8
REMARK    4  A    between atoms: N_7  and  O_9
REMARK                            x       y       z     vdW  Elec       q    Type
REMARK                         _______ _______ _______ _____ _____    ______ ____
ROOT
ATOM      1  C   UNL     1      -0.520 -15.388  15.527  0.00  0.00    +0.000 C 
ATOM      2  C   UNL     1      -1.206 -14.792  16.489  0.00  0.00    +0.000 A 
ATOM      3  C   UNL     1      -1.707 -15.301  17.723  0.00  0.00    +0.000 A 
ATOM      4  C   UNL     1      -2.252 -14.450  18.612  0.00  0.00    +0.000 A 
ATOM      5  C   UNL     1      -2.222 -13.002  18.182  0.00  0.00    +0.000 A 
ATOM      6  C   UNL     1      -2.161 -12.435  16.940  0.00  0.00    +0.000 A 
ATOM      7  C   UNL     1      -1.399 -13.390  16.033  0.00  0.00    +0.000 A 
ATOM      8  N   UNL     1      -0.757 -13.131  14.946  0.00  0.00    +0.000 NA
ATOM      9  C   UNL     1      -0.136 -14.324  14.547  0.00  0.00    +0.000 C 
ATOM     10  O   UNL     1       0.580 -14.465  13.602  0.00  0.00    +0.000 OA
ATOM     11  C   UNL     1      -1.943 -10.774  16.910  0.00  0.00    +0.000 C 
ATOM     12  C   UNL     1      -0.610 -10.272  17.567  0.00  0.00    +0.000 C 
ATOM     13  C   UNL     1       0.019 -11.546  18.101  0.00  0.00    +0.000 C 
ATOM     14  C   UNL     1      -1.433 -12.022  18.987  0.00  0.00    +0.000 C 
ENDROOT
BRANCH   1  16
ATOM     15  O   UNL     1       0.754 -17.114  15.921  0.00  0.00    +0.000 OA
ATOM     16  N   UNL     1      -0.292 -16.693  15.426  0.00  0.00    +0.000 NA
ENDBRANCH   1  16
BRANCH   4  17
ATOM     17  N   UNL     1      -2.751 -14.891  19.862  0.00  0.00    +0.000 N 
BRANCH  17  18
ATOM     18  O   UNL     1      -4.111 -15.009  20.172  0.00  0.00    +0.000 OA
ATOM     19  H   UNL     1      -4.599 -14.848  19.352  0.00  0.00    +0.000 HD
ENDBRANCH  17  18
BRANCH  17  20
ATOM     20  O   UNL     1      -1.941 -15.032  20.972  0.00  0.00    +0.000 OA
ATOM     21  H   UNL     1      -2.611 -15.248  21.654  0.00  0.00    +0.000 HD
ENDBRANCH  17  20
ENDBRANCH   4  17
TORSDOF 4
ENDMDL
MODEL 7
REMARK minimizedAffinity -5.33449984
REMARK minimizedRMSD -1
REMARK  Name = 
REMARK  4 active torsions:
REMARK  status: ('A' for Active; 'I' for Inactive)
REMARK    1  A    between atoms: N_2  and  C_3
REMARK    2  A    between atoms: C_6  and  N_7
REMARK    3  A    between atoms: N_7  and  O_8
REMARK    4  A    between atoms: N_7  and  O_9
REMARK                            x       y       z     vdW  Elec       q    Type
REMARK                         _______ _______ _______ _____ _____    ______ ____
ROOT
ATOM      1  C   UNL     1       0.620  19.140  17.472  0.00  0.00    +0.000 C 
ATOM      2  C   UNL     1      -0.159  18.198  16.963  0.00  0.00    +0.000 A 
ATOM      3  C   UNL     1       0.073  16.805  16.772  0.00  0.00    +0.000 A 
ATOM      4  C   UNL     1      -0.942  16.019  16.367  0.00  0.00    +0.000 A 
ATOM      5  C   UNL     1      -2.257  16.743  16.199  0.00  0.00    +0.000 A 
ATOM      6  C   UNL     1      -2.533  18.059  15.954  0.00  0.00    +0.000 A 
ATOM      7  C   UNL     1      -1.418  18.888  16.575  0.00  0.00    +0.000 A 
ATOM      8  N   UNL     1      -1.443  20.120  16.952  0.00  0.00    +0.000 NA
ATOM      9  C   UNL     1      -0.207  20.384  17.561  0.00  0.00    +0.000 C 
ATOM     10  O   UNL     1       0.124  21.412  18.069  0.00  0.00    +0.000 OA
ATOM     11  C   UNL     1      -4.149  18.489  16.039  0.00  0.00    +0.000 C 
ATOM     12  C   UNL     1      -4.819  18.268  17.440  0.00  0.00    +0.000 C 
ATOM     13  C   UNL     1      -3.713  17.629  18.259  0.00  0.00    +0.000 C 
ATOM     14  C   UNL     1      -3.411  16.361  17.067  0.00  0.00    +0.000 C 
ENDROOT
BRANCH   1  16
ATOM     15  O   UNL     1       2.185  18.738  18.937  0.00  0.00    +0.000 OA
ATOM     16  N   UNL     1       1.908  19.009  17.768  0.00  0.00    +0.000 NA
ENDBRANCH   1  16
BRANCH   4  17
ATOM     17  N   UNL     1      -0.779  14.625  16.177  0.00  0.00    +0.000 N 
BRANCH  17  18
ATOM     18  O   UNL     1       0.386  13.916  16.491  0.00  0.00    +0.000 OA
ATOM     19  H   UNL     1       0.973  14.533  16.951  0.00  0.00    +0.000 HD
ENDBRANCH  17  18
BRANCH  17  20
ATOM     20  O   UNL     1      -1.679  13.869  15.451  0.00  0.00    +0.000 OA
ATOM     21  H   UNL     1      -1.217  13.004  15.442  0.00  0.00    +0.000 HD
ENDBRANCH  17  20
ENDBRANCH   4  17
TORSDOF 4
ENDMDL
MODEL 8
REMARK minimizedAffinity -5.32363844
REMARK minimizedRMSD -1
REMARK  Name = 
REMARK  4 active torsions:
REMARK  status: ('A' for Active; 'I' for Inactive)
REMARK    1  A    between atoms: N_2  and  C_3
REMARK    2  A    between atoms: C_6  and  N_7
REMARK    3  A    between atoms: N_7  and  O_8
REMARK    4  A    between atoms: N_7  and  O_9
REMARK                            x       y       z     vdW  Elec       q    Type
REMARK                         _______ _______ _______ _____ _____    ______ ____
ROOT
ATOM      1  C   UNL     1       3.955  -2.251   0.506  0.00  0.00    +0.000 C 
ATOM      2  C   UNL     1       2.807  -1.861   1.038  0.00  0.00    +0.000 A 
ATOM      3  C   UNL     1       2.232  -0.562   1.155  0.00  0.00    +0.000 A 
ATOM      4  C   UNL     1       0.970  -0.440   1.608  0.00  0.00    +0.000 A 
ATOM      5  C   UNL     1       0.290  -1.755   1.908  0.00  0.00    +0.000 A 
ATOM      6  C   UNL     1       0.805  -2.981   2.226  0.00  0.00    +0.000 A 
ATOM      7  C   UNL     1       2.164  -3.100   1.551  0.00  0.00    +0.000 A 
ATOM      8  N   UNL     1       2.812  -4.165   1.226  0.00  0.00    +0.000 NA
ATOM      9  C   UNL     1       3.957  -3.747   0.532  0.00  0.00    +0.000 C 
ATOM     10  O   UNL     1       4.783  -4.456   0.040  0.00  0.00    +0.000 OA
ATOM     11  C   UNL     1      -0.300  -4.238   2.286  0.00  0.00    +0.000 C 
ATOM     12  C   UNL     1      -1.041  -4.532   0.935  0.00  0.00    +0.000 C 
ATOM     13  C   UNL     1      -0.515  -3.453   0.006  0.00  0.00    +0.000 C 
ATOM     14  C   UNL     1      -0.918  -2.143   1.120  0.00  0.00    +0.000 C 
ENDROOT
BRANCH   1  16
ATOM     15  O   UNL     1       4.902  -1.076  -1.068  0.00  0.00    +0.000 OA
ATOM     16  N   UNL     1       4.938  -1.453   0.104  0.00  0.00    +0.000 NA
ENDBRANCH   1  16
BRANCH   4  17
ATOM     17  N   UNL     1       0.338   0.821   1.729  0.00  0.00    +0.000 N 
BRANCH  17  18
ATOM     18  O   UNL     1       0.991   2.050   1.580  0.00  0.00    +0.000 OA
ATOM     19  H   UNL     1       1.888   1.854   1.274  0.00  0.00    +0.000 HD
ENDBRANCH  17  18
BRANCH  17  20
ATOM     20  O   UNL     1      -0.941   0.959   2.232  0.00  0.00    +0.000 OA
ATOM     21  H   UNL     1      -1.014   1.937   2.266  0.00  0.00    +0.000 HD
ENDBRANCH  17  20
ENDBRANCH   4  17
TORSDOF 4
ENDMDL
MODEL 9
REMARK minimizedAffinity -5.2499938
REMARK minimizedRMSD -1
REMARK  Name = 
REMARK  4 active torsions:
REMARK  status: ('A' for Active; 'I' for Inactive)
REMARK    1  A    between atoms: N_2  and  C_3
REMARK    2  A    between atoms: C_6  and  N_7
REMARK    3  A    between atoms: N_7  and  O_8
REMARK    4  A    between atoms: N_7  and  O_9
REMARK                            x       y       z     vdW  Elec       q    Type
REMARK                         _______ _______ _______ _____ _____    ______ ____
ROOT
ATOM      1  C   UNL     1       0.740  -4.530   2.532  0.00  0.00    +0.000 C 
ATOM      2  C   UNL     1       0.830  -3.358   1.922  0.00  0.00    +0.000 A 
ATOM      3  C   UNL     1       0.456  -2.053   2.360  0.00  0.00    +0.000 A 
ATOM      4  C   UNL     1       0.788  -0.987   1.608  0.00  0.00    +0.000 A 
ATOM      5  C   UNL     1       1.580  -1.327   0.368  0.00  0.00    +0.000 A 
ATOM      6  C   UNL     1       1.655  -2.480  -0.362  0.00  0.00    +0.000 A 
ATOM      7  C   UNL     1       1.419  -3.645   0.588  0.00  0.00    +0.000 A 
ATOM      8  N   UNL     1       1.785  -4.875   0.463  0.00  0.00    +0.000 NA
ATOM      9  C   UNL     1       1.428  -5.527   1.652  0.00  0.00    +0.000 C 
ATOM     10  O   UNL     1       1.641  -6.670   1.922  0.00  0.00    +0.000 OA
ATOM     11  C   UNL     1       2.820  -2.502  -1.566  0.00  0.00    +0.000 C 
ATOM     12  C   UNL     1       4.296  -2.336  -1.060  0.00  0.00    +0.000 C 
ATOM     13  C   UNL     1       4.131  -2.125   0.434  0.00  0.00    +0.000 C 
ATOM     14  C   UNL     1       2.973  -0.806   0.232  0.00  0.00    +0.000 C 
ENDROOT
BRANCH   1  16
ATOM     15  O   UNL     1      -1.120  -4.956   3.586  0.00  0.00    +0.000 OA
ATOM     16  N   UNL     1       0.094  -4.770   3.667  0.00  0.00    +0.000 NA
ENDBRANCH   1  16
BRANCH   4  17
ATOM     17  N   UNL     1       0.461   0.334   1.998  0.00  0.00    +0.000 N 
BRANCH  17  18
ATOM     18  O   UNL     1       1.393   1.283   2.434  0.00  0.00    +0.000 OA
ATOM     19  H   UNL     1       2.269   0.895   2.301  0.00  0.00    +0.000 HD
ENDBRANCH  17  18
BRANCH  17  20
ATOM     20  O   UNL     1      -0.844   0.742   2.200  0.00  0.00    +0.000 OA
ATOM     21  H   UNL     1      -0.695   1.648   2.545  0.00  0.00    +0.000 HD
ENDBRANCH  17  20
ENDBRANCH   4  17
TORSDOF 4
ENDMDL
