MODEL 1
REMARK minimizedAffinity -6.64420271
REMARK minimizedRMSD -1
REMARK  Name = 
REMARK  6 active torsions:
REMARK  status: ('A' for Active; 'I' for Inactive)
REMARK    1  A    between atoms: C_6  and  C_7
REMARK    2  A    between atoms: C_7  and  N_8
REMARK    3  A    between atoms: N_8  and  C_9
REMARK    4  A    between atoms: C_12  and  S_15
REMARK    5  A    between atoms: S_15  and  N_18
REMARK    6  A    between atoms: N_18  and  C_19
REMARK                            x       y       z     vdW  Elec       q    Type
REMARK                         _______ _______ _______ _____ _____    ______ ____
ROOT
ATOM      1  C   UNL     1       1.368   2.889   8.080  0.00  0.00    +0.000 A 
ATOM      2  C   UNL     1       0.654   3.426   7.023  0.00  0.00    +0.000 A 
ATOM      3  C   UNL     1      -0.699   3.193   6.894  0.00  0.00    +0.000 A 
ATOM      4  C   UNL     1      -1.384   2.360   7.742  0.00  0.00    +0.000 A 
ATOM      5  C   UNL     1      -0.743   1.977   8.924  0.00  0.00    +0.000 A 
ATOM      6  C   UNL     1       0.651   2.184   9.055  0.00  0.00    +0.000 A 
ENDROOT
BRANCH   4   7
ATOM      7  S   UNL     1      -2.980   1.727   7.272  0.00  0.00    +0.000 S 
ATOM      8  O   UNL     1      -3.787   1.692   8.479  0.00  0.00    +0.000 OA
ATOM      9  O   UNL     1      -3.414   2.556   6.164  0.00  0.00    +0.000 OA
BRANCH   7  10
ATOM     10  N   UNL     1      -2.982   0.104   6.714  0.00  0.00    +0.000 N 
ATOM     11  H   UNL     1      -2.797   0.103   5.713  0.00  0.00    +0.000 HD
BRANCH  10  12
ATOM     12  C   UNL     1      -2.432  -1.012   7.407  0.00  0.00    +0.000 A 
ATOM     13  C   UNL     1      -3.208  -1.844   8.210  0.00  0.00    +0.000 A 
ATOM     14  C   UNL     1      -2.707  -3.110   8.554  0.00  0.00    +0.000 A 
ATOM     15  C   UNL     1      -1.397  -3.442   8.229  0.00  0.00    +0.000 A 
ATOM     16  C   UNL     1      -0.651  -2.492   7.554  0.00  0.00    +0.000 A 
ATOM     17  N   UNL     1      -1.143  -1.294   7.131  0.00  0.00    +0.000 NA
ENDBRANCH  10  12
ENDBRANCH   7  10
ENDBRANCH   4   7
BRANCH   1  18
ATOM     18  N   UNL     1       2.741   3.133   8.156  0.00  0.00    +0.000 N 
ATOM     19  H   UNL     1       3.191   3.388   7.290  0.00  0.00    +0.000 HD
BRANCH  18  20
ATOM     20  C   UNL     1       3.496   2.196   8.968  0.00  0.00    +0.000 C 
BRANCH  20  26
ATOM     21  O   UNL     1       3.926   2.025   5.907  0.00  0.00    +0.000 OA
ATOM     22  C   UNL     1       3.748   1.342   6.872  0.00  0.00    +0.000 C 
ATOM     23  N   UNL     1       3.044   0.143   7.155  0.00  0.00    +0.000 NA
ATOM     24  C   UNL     1       3.873  -0.479   7.955  0.00  0.00    +0.000 A 
ATOM     25  C   UNL     1       5.138   0.299   7.989  0.00  0.00    +0.000 A 
ATOM     26  C   UNL     1       4.569   1.533   8.071  0.00  0.00    +0.000 C 
ATOM     27  C   UNL     1       5.830  -0.352   6.822  0.00  0.00    +0.000 A 
ATOM     28  S   UNL     1       6.342   0.311   5.312  0.00  0.00    +0.000 S 
ATOM     29  C   UNL     1       6.681  -1.273   4.722  0.00  0.00    +0.000 A 
ATOM     30  N   UNL     1       6.296  -2.278   5.483  0.00  0.00    +0.000 NA
ATOM     31  C   UNL     1       5.736  -1.740   6.611  0.00  0.00    +0.000 A 
ATOM     32  C   UNL     1       5.003  -2.522   7.567  0.00  0.00    +0.000 A 
ATOM     33  C   UNL     1       4.082  -1.913   8.354  0.00  0.00    +0.000 A 
ENDBRANCH  20  26
ENDBRANCH  18  20
ENDBRANCH   1  18
TORSDOF 6
ENDMDL
MODEL 2
REMARK minimizedAffinity -6.61102867
REMARK minimizedRMSD -1
REMARK  Name = 
REMARK  6 active torsions:
REMARK  status: ('A' for Active; 'I' for Inactive)
REMARK    1  A    between atoms: C_6  and  C_7
REMARK    2  A    between atoms: C_7  and  N_8
REMARK    3  A    between atoms: N_8  and  C_9
REMARK    4  A    between atoms: C_12  and  S_15
REMARK    5  A    between atoms: S_15  and  N_18
REMARK    6  A    between atoms: N_18  and  C_19
REMARK                            x       y       z     vdW  Elec       q    Type
REMARK                         _______ _______ _______ _____ _____    ______ ____
ROOT
ATOM      1  C   UNL     1       3.728   5.245   6.906  0.00  0.00    +0.000 A 
ATOM      2  C   UNL     1       4.652   6.066   6.283  0.00  0.00    +0.000 A 
ATOM      3  C   UNL     1       4.322   6.760   5.138  0.00  0.00    +0.000 A 
ATOM      4  C   UNL     1       3.109   6.612   4.514  0.00  0.00    +0.000 A 
ATOM      5  C   UNL     1       2.096   5.962   5.225  0.00  0.00    +0.000 A 
ATOM      6  C   UNL     1       2.428   5.221   6.385  0.00  0.00    +0.000 A 
ENDROOT
BRANCH   4   7
ATOM      7  S   UNL     1       2.904   7.144   2.829  0.00  0.00    +0.000 S 
ATOM      8  O   UNL     1       1.647   6.583   2.364  0.00  0.00    +0.000 OA
ATOM      9  O   UNL     1       3.059   8.585   2.856  0.00  0.00    +0.000 OA
BRANCH   7  10
ATOM     10  N   UNL     1       4.071   6.536   1.727  0.00  0.00    +0.000 N 
ATOM     11  H   UNL     1       4.013   7.069   0.863  0.00  0.00    +0.000 HD
BRANCH  10  12
ATOM     12  C   UNL     1       5.390   6.117   2.065  0.00  0.00    +0.000 A 
ATOM     13  C   UNL     1       6.449   7.014   2.181  0.00  0.00    +0.000 A 
ATOM     14  C   UNL     1       7.606   6.609   2.866  0.00  0.00    +0.000 A 
ATOM     15  C   UNL     1       7.739   5.286   3.268  0.00  0.00    +0.000 A 
ATOM     16  C   UNL     1       6.692   4.427   2.981  0.00  0.00    +0.000 A 
ATOM     17  N   UNL     1       5.523   4.817   2.399  0.00  0.00    +0.000 NA
ENDBRANCH  10  12
ENDBRANCH   7  10
ENDBRANCH   4   7
BRANCH   1  18
ATOM     18  N   UNL     1       4.115   4.543   8.049  0.00  0.00    +0.000 N 
ATOM     19  H   UNL     1       5.092   4.605   8.294  0.00  0.00    +0.000 HD
BRANCH  18  20
ATOM     20  C   UNL     1       3.549   3.213   8.185  0.00  0.00    +0.000 C 
BRANCH  20  26
ATOM     21  O   UNL     1       4.272   2.296   5.318  0.00  0.00    +0.000 OA
ATOM     22  C   UNL     1       3.857   1.885   6.361  0.00  0.00    +0.000 C 
ATOM     23  N   UNL     1       2.902   0.917   6.766  0.00  0.00    +0.000 NA
ATOM     24  C   UNL     1       3.497   0.356   7.788  0.00  0.00    +0.000 A 
ATOM     25  C   UNL     1       4.880   0.894   7.858  0.00  0.00    +0.000 A 
ATOM     26  C   UNL     1       4.562   2.194   7.608  0.00  0.00    +0.000 C 
ATOM     27  C   UNL     1       5.553  -0.108   6.960  0.00  0.00    +0.000 A 
ATOM     28  S   UNL     1       6.351   0.107   5.444  0.00  0.00    +0.000 S 
ATOM     29  C   UNL     1       6.431  -1.603   5.236  0.00  0.00    +0.000 A 
ATOM     30  N   UNL     1       5.773  -2.333   6.113  0.00  0.00    +0.000 NA
ATOM     31  C   UNL     1       5.210  -1.471   7.015  0.00  0.00    +0.000 A 
ATOM     32  C   UNL     1       4.234  -1.885   7.985  0.00  0.00    +0.000 A 
ATOM     33  C   UNL     1       3.372  -0.968   8.489  0.00  0.00    +0.000 A 
ENDBRANCH  20  26
ENDBRANCH  18  20
ENDBRANCH   1  18
TORSDOF 6
ENDMDL
MODEL 3
REMARK minimizedAffinity -6.56964874
REMARK minimizedRMSD -1
REMARK  Name = 
REMARK  6 active torsions:
REMARK  status: ('A' for Active; 'I' for Inactive)
REMARK    1  A    between atoms: C_6  and  C_7
REMARK    2  A    between atoms: C_7  and  N_8
REMARK    3  A    between atoms: N_8  and  C_9
REMARK    4  A    between atoms: C_12  and  S_15
REMARK    5  A    between atoms: S_15  and  N_18
REMARK    6  A    between atoms: N_18  and  C_19
REMARK                            x       y       z     vdW  Elec       q    Type
REMARK                         _______ _______ _______ _____ _____    ______ ____
ROOT
ATOM      1  C   UNL     1      -0.023   3.570   7.860  0.00  0.00    +0.000 A 
ATOM      2  C   UNL     1       0.524   2.422   8.408  0.00  0.00    +0.000 A 
ATOM      3  C   UNL     1       1.824   2.057   8.131  0.00  0.00    +0.000 A 
ATOM      4  C   UNL     1       2.608   2.751   7.244  0.00  0.00    +0.000 A 
ATOM      5  C   UNL     1       2.161   4.013   6.844  0.00  0.00    +0.000 A 
ATOM      6  C   UNL     1       0.819   4.387   7.096  0.00  0.00    +0.000 A 
ENDROOT
BRANCH   4   7
ATOM      7  S   UNL     1       4.072   1.997   6.571  0.00  0.00    +0.000 S 
ATOM      8  O   UNL     1       4.089   2.311   5.153  0.00  0.00    +0.000 OA
ATOM      9  O   UNL     1       5.165   2.461   7.404  0.00  0.00    +0.000 OA
BRANCH   7  10
ATOM     10  N   UNL     1       4.097   0.281   6.625  0.00  0.00    +0.000 N 
ATOM     11  H   UNL     1       3.237  -0.070   6.212  0.00  0.00    +0.000 HD
BRANCH  10  12
ATOM     12  C   UNL     1       5.237  -0.539   6.383  0.00  0.00    +0.000 A 
ATOM     13  C   UNL     1       6.086  -0.953   7.406  0.00  0.00    +0.000 A 
ATOM     14  C   UNL     1       6.947  -2.037   7.172  0.00  0.00    +0.000 A 
ATOM     15  C   UNL     1       7.053  -2.567   5.892  0.00  0.00    +0.000 A 
ATOM     16  C   UNL     1       6.273  -1.995   4.902  0.00  0.00    +0.000 A 
ATOM     17  N   UNL     1       5.365  -1.003   5.124  0.00  0.00    +0.000 NA
ENDBRANCH  10  12
ENDBRANCH   7  10
ENDBRANCH   4   7
BRANCH   1  18
ATOM     18  N   UNL     1      -1.351   3.886   8.151  0.00  0.00    +0.000 N 
ATOM     19  H   UNL     1      -1.837   3.239   8.754  0.00  0.00    +0.000 HD
BRANCH  18  20
ATOM     20  C   UNL     1      -2.139   4.360   7.027  0.00  0.00    +0.000 C 
BRANCH  20  26
ATOM     21  O   UNL     1      -1.870   1.414   6.114  0.00  0.00    +0.000 OA
ATOM     22  C   UNL     1      -2.294   2.475   5.760  0.00  0.00    +0.000 C 
ATOM     23  N   UNL     1      -2.387   3.175   4.530  0.00  0.00    +0.000 NA
ATOM     24  C   UNL     1      -3.577   3.715   4.611  0.00  0.00    +0.000 A 
ATOM     25  C   UNL     1      -4.238   3.174   5.826  0.00  0.00    +0.000 A 
ATOM     26  C   UNL     1      -3.157   3.256   6.650  0.00  0.00    +0.000 C 
ATOM     27  C   UNL     1      -4.870   1.956   5.210  0.00  0.00    +0.000 A 
ATOM     28  S   UNL     1      -4.606   0.278   5.522  0.00  0.00    +0.000 S 
ATOM     29  C   UNL     1      -5.556  -0.136   4.144  0.00  0.00    +0.000 A 
ATOM     30  N   UNL     1      -5.925   0.860   3.365  0.00  0.00    +0.000 NA
ATOM     31  C   UNL     1      -5.450   2.014   3.929  0.00  0.00    +0.000 A 
ATOM     32  C   UNL     1      -5.462   3.279   3.248  0.00  0.00    +0.000 A 
ATOM     33  C   UNL     1      -4.572   4.234   3.612  0.00  0.00    +0.000 A 
ENDBRANCH  20  26
ENDBRANCH  18  20
ENDBRANCH   1  18
TORSDOF 6
ENDMDL
MODEL 4
REMARK minimizedAffinity -6.41113138
REMARK minimizedRMSD -1
REMARK  Name = 
REMARK  6 active torsions:
REMARK  status: ('A' for Active; 'I' for Inactive)
REMARK    1  A    between atoms: C_6  and  C_7
REMARK    2  A    between atoms: C_7  and  N_8
REMARK    3  A    between atoms: N_8  and  C_9
REMARK    4  A    between atoms: C_12  and  S_15
REMARK    5  A    between atoms: S_15  and  N_18
REMARK    6  A    between atoms: N_18  and  C_19
REMARK                            x       y       z     vdW  Elec       q    Type
REMARK                         _______ _______ _______ _____ _____    ______ ____
ROOT
ATOM      1  C   UNL     1       2.398   1.876   8.830  0.00  0.00    +0.000 A 
ATOM      2  C   UNL     1       3.082   2.116   7.650  0.00  0.00    +0.000 A 
ATOM      3  C   UNL     1       3.731   1.094   6.990  0.00  0.00    +0.000 A 
ATOM      4  C   UNL     1       3.806  -0.177   7.499  0.00  0.00    +0.000 A 
ATOM      5  C   UNL     1       2.960  -0.493   8.566  0.00  0.00    +0.000 A 
ATOM      6  C   UNL     1       2.314   0.550   9.271  0.00  0.00    +0.000 A 
ENDROOT
BRANCH   4   7
ATOM      7  S   UNL     1       5.020  -1.317   6.871  0.00  0.00    +0.000 S 
ATOM      8  O   UNL     1       6.304  -0.894   7.402  0.00  0.00    +0.000 OA
ATOM      9  O   UNL     1       4.524  -2.637   7.211  0.00  0.00    +0.000 OA
BRANCH   7  10
ATOM     10  N   UNL     1       5.234  -1.286   5.169  0.00  0.00    +0.000 N 
ATOM     11  H   UNL     1       4.416  -0.855   4.745  0.00  0.00    +0.000 HD
BRANCH  10  12
ATOM     12  C   UNL     1       6.456  -1.006   4.492  0.00  0.00    +0.000 A 
ATOM     13  C   UNL     1       7.326  -2.012   4.079  0.00  0.00    +0.000 A 
ATOM     14  C   UNL     1       8.297  -1.709   3.112  0.00  0.00    +0.000 A 
ATOM     15  C   UNL     1       8.480  -0.392   2.709  0.00  0.00    +0.000 A 
ATOM     16  C   UNL     1       7.663   0.566   3.283  0.00  0.00    +0.000 A 
ATOM     17  N   UNL     1       6.654   0.285   4.155  0.00  0.00    +0.000 NA
ENDBRANCH  10  12
ENDBRANCH   7  10
ENDBRANCH   4   7
BRANCH   1  18
ATOM     18  N   UNL     1       1.777   2.947   9.476  0.00  0.00    +0.000 N 
ATOM     19  H   UNL     1       1.393   2.748  10.388  0.00  0.00    +0.000 HD
BRANCH  18  20
ATOM     20  C   UNL     1       0.926   3.772   8.637  0.00  0.00    +0.000 C 
BRANCH  20  26
ATOM     21  O   UNL     1      -0.433   2.970   5.973  0.00  0.00    +0.000 OA
ATOM     22  C   UNL     1      -0.629   3.575   6.986  0.00  0.00    +0.000 C 
ATOM     23  N   UNL     1      -1.324   4.758   7.346  0.00  0.00    +0.000 NA
ATOM     24  C   UNL     1      -1.881   4.415   8.480  0.00  0.00    +0.000 A 
ATOM     25  C   UNL     1      -1.643   2.963   8.680  0.00  0.00    +0.000 A 
ATOM     26  C   UNL     1      -0.340   2.955   8.282  0.00  0.00    +0.000 C 
ATOM     27  C   UNL     1      -2.857   2.438   7.963  0.00  0.00    +0.000 A 
ATOM     28  S   UNL     1      -2.984   1.456   6.548  0.00  0.00    +0.000 S 
ATOM     29  C   UNL     1      -4.684   1.736   6.497  0.00  0.00    +0.000 A 
ATOM     30  N   UNL     1      -5.158   2.630   7.341  0.00  0.00    +0.000 NA
ATOM     31  C   UNL     1      -4.102   3.080   8.088  0.00  0.00    +0.000 A 
ATOM     32  C   UNL     1      -4.192   4.220   8.957  0.00  0.00    +0.000 A 
ATOM     33  C   UNL     1      -3.064   4.905   9.267  0.00  0.00    +0.000 A 
ENDBRANCH  20  26
ENDBRANCH  18  20
ENDBRANCH   1  18
TORSDOF 6
ENDMDL
MODEL 5
REMARK minimizedAffinity -6.40702963
REMARK minimizedRMSD -1
REMARK  Name = 
REMARK  6 active torsions:
REMARK  status: ('A' for Active; 'I' for Inactive)
REMARK    1  A    between atoms: C_6  and  C_7
REMARK    2  A    between atoms: C_7  and  N_8
REMARK    3  A    between atoms: N_8  and  C_9
REMARK    4  A    between atoms: C_12  and  S_15
REMARK    5  A    between atoms: S_15  and  N_18
REMARK    6  A    between atoms: N_18  and  C_19
REMARK                            x       y       z     vdW  Elec       q    Type
REMARK                         _______ _______ _______ _____ _____    ______ ____
ROOT
ATOM      1  C   UNL     1       2.060   3.578   8.982  0.00  0.00    +0.000 A 
ATOM      2  C   UNL     1       1.262   2.712   8.255  0.00  0.00    +0.000 A 
ATOM      3  C   UNL     1       1.556   1.366   8.192  0.00  0.00    +0.000 A 
ATOM      4  C   UNL     1       2.682   0.833   8.766  0.00  0.00    +0.000 A 
ATOM      5  C   UNL     1       3.384   1.636   9.670  0.00  0.00    +0.000 A 
ATOM      6  C   UNL     1       3.113   3.024   9.721  0.00  0.00    +0.000 A 
ENDROOT
BRANCH   4   7
ATOM      7  S   UNL     1       3.256  -0.778   8.272  0.00  0.00    +0.000 S 
ATOM      8  O   UNL     1       4.209  -1.208   9.280  0.00  0.00    +0.000 OA
ATOM      9  O   UNL     1       2.058  -1.567   8.060  0.00  0.00    +0.000 OA
BRANCH   7  10
ATOM     10  N   UNL     1       4.146  -0.814   6.805  0.00  0.00    +0.000 N 
ATOM     11  H   UNL     1       3.502  -0.997   6.038  0.00  0.00    +0.000 HD
BRANCH  10  12
ATOM     12  C   UNL     1       5.222   0.056   6.466  0.00  0.00    +0.000 A 
ATOM     13  C   UNL     1       6.010   0.675   7.432  0.00  0.00    +0.000 A 
ATOM     14  C   UNL     1       7.254   1.203   7.052  0.00  0.00    +0.000 A 
ATOM     15  C   UNL     1       7.602   1.244   5.708  0.00  0.00    +0.000 A 
ATOM     16  C   UNL     1       6.689   0.734   4.801  0.00  0.00    +0.000 A 
ATOM     17  N   UNL     1       5.517   0.136   5.153  0.00  0.00    +0.000 NA
ENDBRANCH  10  12
ENDBRANCH   7  10
ENDBRANCH   4   7
BRANCH   1  18
ATOM     18  N   UNL     1       1.738   4.937   8.997  0.00  0.00    +0.000 N 
ATOM     19  H   UNL     1       1.247   5.264   9.816  0.00  0.00    +0.000 HD
BRANCH  18  20
ATOM     20  C   UNL     1       1.231   5.470   7.745  0.00  0.00    +0.000 C 
BRANCH  20  26
ATOM     21  O   UNL     1       1.428   7.192   5.179  0.00  0.00    +0.000 OA
ATOM     22  C   UNL     1       1.826   6.173   5.662  0.00  0.00    +0.000 C 
ATOM     23  N   UNL     1       2.126   4.870   5.186  0.00  0.00    +0.000 NA
ATOM     24  C   UNL     1       3.216   4.581   5.850  0.00  0.00    +0.000 A 
ATOM     25  C   UNL     1       3.638   5.802   6.582  0.00  0.00    +0.000 A 
ATOM     26  C   UNL     1       2.400   6.172   7.010  0.00  0.00    +0.000 C 
ATOM     27  C   UNL     1       4.495   6.418   5.510  0.00  0.00    +0.000 A 
ATOM     28  S   UNL     1       4.316   7.906   4.651  0.00  0.00    +0.000 S 
ATOM     29  C   UNL     1       5.578   7.443   3.571  0.00  0.00    +0.000 A 
ATOM     30  N   UNL     1       6.021   6.207   3.681  0.00  0.00    +0.000 NA
ATOM     31  C   UNL     1       5.334   5.621   4.710  0.00  0.00    +0.000 A 
ATOM     32  C   UNL     1       5.386   4.211   4.979  0.00  0.00    +0.000 A 
ATOM     33  C   UNL     1       4.358   3.626   5.641  0.00  0.00    +0.000 A 
ENDBRANCH  20  26
ENDBRANCH  18  20
ENDBRANCH   1  18
TORSDOF 6
ENDMDL
MODEL 6
REMARK minimizedAffinity -6.34108543
REMARK minimizedRMSD -1
REMARK  Name = 
REMARK  6 active torsions:
REMARK  status: ('A' for Active; 'I' for Inactive)
REMARK    1  A    between atoms: C_6  and  C_7
REMARK    2  A    between atoms: C_7  and  N_8
REMARK    3  A    between atoms: N_8  and  C_9
REMARK    4  A    between atoms: C_12  and  S_15
REMARK    5  A    between atoms: S_15  and  N_18
REMARK    6  A    between atoms: N_18  and  C_19
REMARK                            x       y       z     vdW  Elec       q    Type
REMARK                         _______ _______ _______ _____ _____    ______ ____
ROOT
ATOM      1  C   UNL     1       5.612   2.049   6.817  0.00  0.00    +0.000 A 
ATOM      2  C   UNL     1       4.767   2.641   5.894  0.00  0.00    +0.000 A 
ATOM      3  C   UNL     1       3.488   3.015   6.247  0.00  0.00    +0.000 A 
ATOM      4  C   UNL     1       2.960   2.749   7.485  0.00  0.00    +0.000 A 
ATOM      5  C   UNL     1       3.847   2.349   8.489  0.00  0.00    +0.000 A 
ATOM      6  C   UNL     1       5.153   1.932   8.135  0.00  0.00    +0.000 A 
ENDROOT
BRANCH   4   7
ATOM      7  S   UNL     1       1.200   2.819   7.737  0.00  0.00    +0.000 S 
ATOM      8  O   UNL     1       0.751   1.450   7.923  0.00  0.00    +0.000 OA
ATOM      9  O   UNL     1       1.000   3.773   8.811  0.00  0.00    +0.000 OA
BRANCH   7  10
ATOM     10  N   UNL     1       0.295   3.383   6.392  0.00  0.00    +0.000 N 
ATOM     11  H   UNL     1       0.788   3.132   5.539  0.00  0.00    +0.000 HD
BRANCH  10  12
ATOM     12  C   UNL     1      -1.124   3.349   6.275  0.00  0.00    +0.000 A 
ATOM     13  C   UNL     1      -1.942   4.314   6.857  0.00  0.00    +0.000 A 
ATOM     14  C   UNL     1      -3.265   4.440   6.404  0.00  0.00    +0.000 A 
ATOM     15  C   UNL     1      -3.779   3.506   5.513  0.00  0.00    +0.000 A 
ATOM     16  C   UNL     1      -2.932   2.492   5.098  0.00  0.00    +0.000 A 
ATOM     17  N   UNL     1      -1.620   2.402   5.453  0.00  0.00    +0.000 NA
ENDBRANCH  10  12
ENDBRANCH   7  10
ENDBRANCH   4   7
BRANCH   1  18
ATOM     18  N   UNL     1       6.890   1.665   6.407  0.00  0.00    +0.000 N 
ATOM     19  H   UNL     1       7.574   2.405   6.344  0.00  0.00    +0.000 HD
BRANCH  18  20
ATOM     20  C   UNL     1       6.934   0.717   5.308  0.00  0.00    +0.000 C 
BRANCH  20  26
ATOM     21  O   UNL     1       7.236  -2.102   4.064  0.00  0.00    +0.000 OA
ATOM     22  C   UNL     1       6.560  -1.477   4.827  0.00  0.00    +0.000 C 
ATOM     23  N   UNL     1       5.183  -1.432   5.164  0.00  0.00    +0.000 NA
ATOM     24  C   UNL     1       5.224  -1.297   6.466  0.00  0.00    +0.000 A 
ATOM     25  C   UNL     1       6.639  -1.442   6.891  0.00  0.00    +0.000 A 
ATOM     26  C   UNL     1       7.187  -0.693   5.894  0.00  0.00    +0.000 C 
ATOM     27  C   UNL     1       6.662  -2.935   7.079  0.00  0.00    +0.000 A 
ATOM     28  S   UNL     1       7.570  -4.152   6.258  0.00  0.00    +0.000 S 
ATOM     29  C   UNL     1       6.633  -5.379   7.024  0.00  0.00    +0.000 A 
ATOM     30  N   UNL     1       5.589  -4.974   7.718  0.00  0.00    +0.000 NA
ATOM     31  C   UNL     1       5.569  -3.606   7.656  0.00  0.00    +0.000 A 
ATOM     32  C   UNL     1       4.452  -2.821   8.105  0.00  0.00    +0.000 A 
ATOM     33  C   UNL     1       4.266  -1.581   7.588  0.00  0.00    +0.000 A 
ENDBRANCH  20  26
ENDBRANCH  18  20
ENDBRANCH   1  18
TORSDOF 6
ENDMDL
MODEL 7
REMARK minimizedAffinity -6.30783224
REMARK minimizedRMSD -1
REMARK  Name = 
REMARK  6 active torsions:
REMARK  status: ('A' for Active; 'I' for Inactive)
REMARK    1  A    between atoms: C_6  and  C_7
REMARK    2  A    between atoms: C_7  and  N_8
REMARK    3  A    between atoms: N_8  and  C_9
REMARK    4  A    between atoms: C_12  and  S_15
REMARK    5  A    between atoms: S_15  and  N_18
REMARK    6  A    between atoms: N_18  and  C_19
REMARK                            x       y       z     vdW  Elec       q    Type
REMARK                         _______ _______ _______ _____ _____    ______ ____
ROOT
ATOM      1  C   UNL     1       1.817   1.408   8.139  0.00  0.00    +0.000 A 
ATOM      2  C   UNL     1       2.319   0.139   8.372  0.00  0.00    +0.000 A 
ATOM      3  C   UNL     1       3.526  -0.252   7.834  0.00  0.00    +0.000 A 
ATOM      4  C   UNL     1       4.245   0.548   6.984  0.00  0.00    +0.000 A 
ATOM      5  C   UNL     1       3.874   1.893   6.899  0.00  0.00    +0.000 A 
ATOM      6  C   UNL     1       2.622   2.301   7.420  0.00  0.00    +0.000 A 
ENDROOT
BRANCH   4   7
ATOM      7  S   UNL     1       5.523  -0.156   5.964  0.00  0.00    +0.000 S 
ATOM      8  O   UNL     1       6.647  -0.439   6.840  0.00  0.00    +0.000 OA
ATOM      9  O   UNL     1       4.893  -1.255   5.258  0.00  0.00    +0.000 OA
BRANCH   7  10
ATOM     10  N   UNL     1       6.168   0.899   4.774  0.00  0.00    +0.000 N 
ATOM     11  H   UNL     1       6.058   1.858   5.095  0.00  0.00    +0.000 HD
BRANCH  10  12
ATOM     12  C   UNL     1       7.354   0.671   4.019  0.00  0.00    +0.000 A 
ATOM     13  C   UNL     1       8.602   1.123   4.439  0.00  0.00    +0.000 A 
ATOM     14  C   UNL     1       9.753   0.559   3.865  0.00  0.00    +0.000 A 
ATOM     15  C   UNL     1       9.629  -0.309   2.788  0.00  0.00    +0.000 A 
ATOM     16  C   UNL     1       8.348  -0.590   2.343  0.00  0.00    +0.000 A 
ATOM     17  N   UNL     1       7.215  -0.127   2.940  0.00  0.00    +0.000 NA
ENDBRANCH  10  12
ENDBRANCH   7  10
ENDBRANCH   4   7
BRANCH   1  18
ATOM     18  N   UNL     1       0.579   1.752   8.684  0.00  0.00    +0.000 N 
ATOM     19  H   UNL     1      -0.076   0.993   8.802  0.00  0.00    +0.000 HD
BRANCH  18  20
ATOM     20  C   UNL     1      -0.011   2.974   8.168  0.00  0.00    +0.000 C 
BRANCH  20  26
ATOM     21  O   UNL     1      -1.661   0.670   6.922  0.00  0.00    +0.000 OA
ATOM     22  C   UNL     1      -1.434   1.838   6.801  0.00  0.00    +0.000 C 
ATOM     23  N   UNL     1      -1.288   2.739   5.715  0.00  0.00    +0.000 NA
ATOM     24  C   UNL     1      -1.907   3.804   6.158  0.00  0.00    +0.000 A 
ATOM     25  C   UNL     1      -2.562   3.446   7.442  0.00  0.00    +0.000 A 
ATOM     26  C   UNL     1      -1.526   2.730   7.959  0.00  0.00    +0.000 C 
ATOM     27  C   UNL     1      -3.873   2.955   6.892  0.00  0.00    +0.000 A 
ATOM     28  S   UNL     1      -4.596   1.388   6.952  0.00  0.00    +0.000 S 
ATOM     29  C   UNL     1      -5.807   1.895   5.835  0.00  0.00    +0.000 A 
ATOM     30  N   UNL     1      -5.639   3.080   5.284  0.00  0.00    +0.000 NA
ATOM     31  C   UNL     1      -4.499   3.617   5.819  0.00  0.00    +0.000 A 
ATOM     32  C   UNL     1      -3.874   4.801   5.297  0.00  0.00    +0.000 A 
ATOM     33  C   UNL     1      -2.550   4.999   5.511  0.00  0.00    +0.000 A 
ENDBRANCH  20  26
ENDBRANCH  18  20
ENDBRANCH   1  18
TORSDOF 6
ENDMDL
MODEL 8
REMARK minimizedAffinity -6.26213026
REMARK minimizedRMSD -1
REMARK  Name = 
REMARK  6 active torsions:
REMARK  status: ('A' for Active; 'I' for Inactive)
REMARK    1  A    between atoms: C_6  and  C_7
REMARK    2  A    between atoms: C_7  and  N_8
REMARK    3  A    between atoms: N_8  and  C_9
REMARK    4  A    between atoms: C_12  and  S_15
REMARK    5  A    between atoms: S_15  and  N_18
REMARK    6  A    between atoms: N_18  and  C_19
REMARK                            x       y       z     vdW  Elec       q    Type
REMARK                         _______ _______ _______ _____ _____    ______ ____
ROOT
ATOM      1  C   UNL     1       4.234   0.715   8.510  0.00  0.00    +0.000 A 
ATOM      2  C   UNL     1       4.079   2.075   8.716  0.00  0.00    +0.000 A 
ATOM      3  C   UNL     1       2.837   2.667   8.618  0.00  0.00    +0.000 A 
ATOM      4  C   UNL     1       1.720   1.970   8.234  0.00  0.00    +0.000 A 
ATOM      5  C   UNL     1       1.805   0.575   8.224  0.00  0.00    +0.000 A 
ATOM      6  C   UNL     1       3.077  -0.043   8.293  0.00  0.00    +0.000 A 
ENDROOT
BRANCH   4   7
ATOM      7  S   UNL     1       0.274   2.843   7.674  0.00  0.00    +0.000 S 
ATOM      8  O   UNL     1      -0.627   1.847   7.121  0.00  0.00    +0.000 OA
ATOM      9  O   UNL     1      -0.166   3.632   8.809  0.00  0.00    +0.000 OA
BRANCH   7  10
ATOM     10  N   UNL     1       0.542   3.937   6.379  0.00  0.00    +0.000 N 
ATOM     11  H   UNL     1      -0.347   4.355   6.116  0.00  0.00    +0.000 HD
BRANCH  10  12
ATOM     12  C   UNL     1       1.657   4.815   6.252  0.00  0.00    +0.000 A 
ATOM     13  C   UNL     1       1.863   5.886   7.117  0.00  0.00    +0.000 A 
ATOM     14  C   UNL     1       3.139   6.469   7.178  0.00  0.00    +0.000 A 
ATOM     15  C   UNL     1       4.116   6.082   6.269  0.00  0.00    +0.000 A 
ATOM     16  C   UNL     1       3.774   5.108   5.346  0.00  0.00    +0.000 A 
ATOM     17  N   UNL     1       2.573   4.464   5.327  0.00  0.00    +0.000 NA
ENDBRANCH  10  12
ENDBRANCH   7  10
ENDBRANCH   4   7
BRANCH   1  18
ATOM     18  N   UNL     1       5.514   0.164   8.596  0.00  0.00    +0.000 N 
ATOM     19  H   UNL     1       6.269   0.822   8.728  0.00  0.00    +0.000 HD
BRANCH  18  20
ATOM     20  C   UNL     1       5.803  -0.892   7.643  0.00  0.00    +0.000 C 
BRANCH  20  26
ATOM     21  O   UNL     1       5.216   1.103   5.349  0.00  0.00    +0.000 OA
ATOM     22  C   UNL     1       5.570  -0.021   5.552  0.00  0.00    +0.000 C 
ATOM     23  N   UNL     1       5.369  -1.279   4.929  0.00  0.00    +0.000 NA
ATOM     24  C   UNL     1       6.556  -1.823   5.018  0.00  0.00    +0.000 A 
ATOM     25  C   UNL     1       7.487  -0.792   5.543  0.00  0.00    +0.000 A 
ATOM     26  C   UNL     1       6.655  -0.292   6.499  0.00  0.00    +0.000 C 
ATOM     27  C   UNL     1       7.903  -0.181   4.233  0.00  0.00    +0.000 A 
ATOM     28  S   UNL     1       7.674   1.417   3.620  0.00  0.00    +0.000 S 
ATOM     29  C   UNL     1       8.227   0.910   2.068  0.00  0.00    +0.000 A 
ATOM     30  N   UNL     1       8.417  -0.384   1.907  0.00  0.00    +0.000 NA
ATOM     31  C   UNL     1       8.138  -0.987   3.104  0.00  0.00    +0.000 A 
ATOM     32  C   UNL     1       8.017  -2.411   3.251  0.00  0.00    +0.000 A 
ATOM     33  C   UNL     1       7.280  -2.910   4.274  0.00  0.00    +0.000 A 
ENDBRANCH  20  26
ENDBRANCH  18  20
ENDBRANCH   1  18
TORSDOF 6
ENDMDL
MODEL 9
REMARK minimizedAffinity -6.22617817
REMARK minimizedRMSD -1
REMARK  Name = 
REMARK  6 active torsions:
REMARK  status: ('A' for Active; 'I' for Inactive)
REMARK    1  A    between atoms: C_6  and  C_7
REMARK    2  A    between atoms: C_7  and  N_8
REMARK    3  A    between atoms: N_8  and  C_9
REMARK    4  A    between atoms: C_12  and  S_15
REMARK    5  A    between atoms: S_15  and  N_18
REMARK    6  A    between atoms: N_18  and  C_19
REMARK                            x       y       z     vdW  Elec       q    Type
REMARK                         _______ _______ _______ _____ _____    ______ ____
ROOT
ATOM      1  C   UNL     1       1.403   1.252   8.266  0.00  0.00    +0.000 A 
ATOM      2  C   UNL     1       2.050   0.034   8.380  0.00  0.00    +0.000 A 
ATOM      3  C   UNL     1       3.312  -0.147   7.855  0.00  0.00    +0.000 A 
ATOM      4  C   UNL     1       3.952   0.826   7.130  0.00  0.00    +0.000 A 
ATOM      5  C   UNL     1       3.419   2.118   7.178  0.00  0.00    +0.000 A 
ATOM      6  C   UNL     1       2.112   2.311   7.685  0.00  0.00    +0.000 A 
ENDROOT
BRANCH   4   7
ATOM      7  S   UNL     1       5.336   0.400   6.095  0.00  0.00    +0.000 S 
ATOM      8  O   UNL     1       5.327   1.332   4.981  0.00  0.00    +0.000 OA
ATOM      9  O   UNL     1       6.487   0.377   6.978  0.00  0.00    +0.000 OA
BRANCH   7  10
ATOM     10  N   UNL     1       5.243  -1.145   5.356  0.00  0.00    +0.000 N 
ATOM     11  H   UNL     1       4.440  -1.160   4.731  0.00  0.00    +0.000 HD
BRANCH  10  12
ATOM     12  C   UNL     1       6.352  -1.913   4.896  0.00  0.00    +0.000 A 
ATOM     13  C   UNL     1       6.939  -2.910   5.671  0.00  0.00    +0.000 A 
ATOM     14  C   UNL     1       7.757  -3.861   5.041  0.00  0.00    +0.000 A 
ATOM     15  C   UNL     1       8.095  -3.699   3.703  0.00  0.00    +0.000 A 
ATOM     16  C   UNL     1       7.578  -2.594   3.047  0.00  0.00    +0.000 A 
ATOM     17  N   UNL     1       6.711  -1.708   3.613  0.00  0.00    +0.000 NA
ENDBRANCH  10  12
ENDBRANCH   7  10
ENDBRANCH   4   7
BRANCH   1  18
ATOM     18  N   UNL     1       0.116   1.381   8.791  0.00  0.00    +0.000 N 
ATOM     19  H   UNL     1       0.002   1.095   9.752  0.00  0.00    +0.000 HD
BRANCH  18  20
ATOM     20  C   UNL     1      -0.961   0.962   7.912  0.00  0.00    +0.000 C 
BRANCH  20  26
ATOM     21  O   UNL     1      -3.418   1.511   6.109  0.00  0.00    +0.000 OA
ATOM     22  C   UNL     1      -2.351   1.960   6.409  0.00  0.00    +0.000 C 
ATOM     23  N   UNL     1      -1.310   2.647   5.734  0.00  0.00    +0.000 NA
ATOM     24  C   UNL     1      -0.952   3.541   6.621  0.00  0.00    +0.000 A 
ATOM     25  C   UNL     1      -1.918   3.474   7.747  0.00  0.00    +0.000 A 
ATOM     26  C   UNL     1      -1.988   2.116   7.820  0.00  0.00    +0.000 C 
ATOM     27  C   UNL     1      -2.936   4.450   7.224  0.00  0.00    +0.000 A 
ATOM     28  S   UNL     1      -4.588   4.214   6.780  0.00  0.00    +0.000 S 
ATOM     29  C   UNL     1      -4.640   5.797   6.100  0.00  0.00    +0.000 A 
ATOM     30  N   UNL     1      -3.493   6.440   6.020  0.00  0.00    +0.000 NA
ATOM     31  C   UNL     1      -2.536   5.629   6.568  0.00  0.00    +0.000 A 
ATOM     32  C   UNL     1      -1.129   5.896   6.456  0.00  0.00    +0.000 A 
ATOM     33  C   UNL     1      -0.250   4.869   6.559  0.00  0.00    +0.000 A 
ENDBRANCH  20  26
ENDBRANCH  18  20
ENDBRANCH   1  18
TORSDOF 6
ENDMDL
