MODEL 1
REMARK minimizedAffinity -5.27895641
REMARK minimizedRMSD -1
REMARK  Name = 
REMARK  7 active torsions:
REMARK  status: ('A' for Active; 'I' for Inactive)
REMARK    1  A    between atoms: C_1  and  C_2
REMARK    2  A    between atoms: C_2  and  N_3
REMARK    3  A    between atoms: N_3  and  C_4
REMARK    4  A    between atoms: N_7  and  N_8
REMARK    5  A    between atoms: N_13  and  C_14
REMARK    6  A    between atoms: C_14  and  C_15
REMARK    7  A    between atoms: C_14  and  C_16
REMARK                            x       y       z     vdW  Elec       q    Type
REMARK                         _______ _______ _______ _____ _____    ______ ____
ROOT
ATOM      1  C   UNL     1       3.401  -1.230   8.313  0.00  0.00    +0.000 A 
ATOM      2  N   UNL     1       4.211  -0.670   7.417  0.00  0.00    +0.000 NA
ATOM      3  C   UNL     1       3.787   0.456   6.867  0.00  0.00    +0.000 A 
ATOM      4  N   UNL     1       4.625   1.071   5.958  0.00  0.00    +0.000 N 
ATOM      5  N   UNL     1       2.626   1.026   7.136  0.00  0.00    +0.000 NA
ATOM      6  C   UNL     1       1.872   0.403   8.032  0.00  0.00    +0.000 A 
ATOM      7  N   UNL     1       2.205  -0.734   8.636  0.00  0.00    +0.000 NA
ATOM      8  N   UNL     1       0.667   0.976   8.371  0.00  0.00    +0.000 N 
ATOM      9  H   UNL     1       5.513   0.623   5.841  0.00  0.00    +0.000 HD
ATOM     10  H   UNL     1       0.167   0.477   9.090  0.00  0.00    +0.000 HD
ENDROOT
BRANCH   8  11
ATOM     11  C   UNL     1       0.216   2.219   7.786  0.00  0.00    +0.000 C 
ATOM     12  C   UNL     1      -1.262   2.110   7.423  0.00  0.00    +0.000 C 
ATOM     13  C   UNL     1       0.423   3.374   8.760  0.00  0.00    +0.000 C 
ENDBRANCH   8  11
BRANCH   4  14
ATOM     14  N   UNL     1       4.252   2.242   5.352  0.00  0.00    +0.000 NA
ATOM     15  N   UNL     1       4.025   3.226   4.876  0.00  0.00    +0.000 NA
ENDBRANCH   4  14
BRANCH   1  16
ATOM     16  N   UNL     1       3.716  -2.431   8.838  0.00  0.00    +0.000 NA
BRANCH  16  18
ATOM     17  C   UNL     1       2.403  -4.223   7.637  0.00  0.00    +0.000 C 
ATOM     18  C   UNL     1       3.762  -3.601   7.944  0.00  0.00    +0.000 C 
ENDBRANCH  16  18
ENDBRANCH   1  16
TORSDOF 4
ENDMDL
MODEL 2
REMARK minimizedAffinity -5.05850315
REMARK minimizedRMSD -1
REMARK  Name = 
REMARK  7 active torsions:
REMARK  status: ('A' for Active; 'I' for Inactive)
REMARK    1  A    between atoms: C_1  and  C_2
REMARK    2  A    between atoms: C_2  and  N_3
REMARK    3  A    between atoms: N_3  and  C_4
REMARK    4  A    between atoms: N_7  and  N_8
REMARK    5  A    between atoms: N_13  and  C_14
REMARK    6  A    between atoms: C_14  and  C_15
REMARK    7  A    between atoms: C_14  and  C_16
REMARK                            x       y       z     vdW  Elec       q    Type
REMARK                         _______ _______ _______ _____ _____    ______ ____
ROOT
ATOM      1  C   UNL     1       4.602  -0.934   6.850  0.00  0.00    +0.000 A 
ATOM      2  N   UNL     1       4.924   0.061   6.025  0.00  0.00    +0.000 NA
ATOM      3  C   UNL     1       4.155   1.136   6.075  0.00  0.00    +0.000 A 
ATOM      4  N   UNL     1       4.490   2.192   5.251  0.00  0.00    +0.000 N 
ATOM      5  N   UNL     1       3.103   1.264   6.863  0.00  0.00    +0.000 NA
ATOM      6  C   UNL     1       2.841   0.227   7.649  0.00  0.00    +0.000 A 
ATOM      7  N   UNL     1       3.548  -0.899   7.669  0.00  0.00    +0.000 NA
ATOM      8  N   UNL     1       1.773   0.325   8.512  0.00  0.00    +0.000 N 
ATOM      9  H   UNL     1       5.330   2.057   4.722  0.00  0.00    +0.000 HD
ATOM     10  H   UNL     1       1.660  -0.476   9.112  0.00  0.00    +0.000 HD
ENDROOT
BRANCH   8  11
ATOM     11  C   UNL     1       0.948   1.511   8.582  0.00  0.00    +0.000 C 
ATOM     12  C   UNL     1      -0.497   1.152   8.252  0.00  0.00    +0.000 C 
ATOM     13  C   UNL     1       1.021   2.131   9.974  0.00  0.00    +0.000 C 
ENDBRANCH   8  11
BRANCH   4  14
ATOM     14  N   UNL     1       3.740   3.339   5.252  0.00  0.00    +0.000 NA
ATOM     15  N   UNL     1       3.201   4.317   5.241  0.00  0.00    +0.000 NA
ENDBRANCH   4  14
BRANCH   1  16
ATOM     16  N   UNL     1       5.273  -2.100   6.783  0.00  0.00    +0.000 NA
BRANCH  16  18
ATOM     17  C   UNL     1       5.486  -4.526   7.453  0.00  0.00    +0.000 C 
ATOM     18  C   UNL     1       5.020  -3.120   7.815  0.00  0.00    +0.000 C 
ENDBRANCH  16  18
ENDBRANCH   1  16
TORSDOF 4
ENDMDL
MODEL 3
REMARK minimizedAffinity -4.97204876
REMARK minimizedRMSD -1
REMARK  Name = 
REMARK  7 active torsions:
REMARK  status: ('A' for Active; 'I' for Inactive)
REMARK    1  A    between atoms: C_1  and  C_2
REMARK    2  A    between atoms: C_2  and  N_3
REMARK    3  A    between atoms: N_3  and  C_4
REMARK    4  A    between atoms: N_7  and  N_8
REMARK    5  A    between atoms: N_13  and  C_14
REMARK    6  A    between atoms: C_14  and  C_15
REMARK    7  A    between atoms: C_14  and  C_16
REMARK                            x       y       z     vdW  Elec       q    Type
REMARK                         _______ _______ _______ _____ _____    ______ ____
ROOT
ATOM      1  C   UNL     1       4.106  -2.162   7.653  0.00  0.00    +0.000 A 
ATOM      2  N   UNL     1       3.476  -0.990   7.578  0.00  0.00    +0.000 NA
ATOM      3  C   UNL     1       3.963  -0.117   6.712  0.00  0.00    +0.000 A 
ATOM      4  N   UNL     1       3.306   1.091   6.595  0.00  0.00    +0.000 N 
ATOM      5  N   UNL     1       5.023  -0.332   5.953  0.00  0.00    +0.000 NA
ATOM      6  C   UNL     1       5.600  -1.519   6.091  0.00  0.00    +0.000 A 
ATOM      7  N   UNL     1       5.192  -2.460   6.937  0.00  0.00    +0.000 NA
ATOM      8  N   UNL     1       6.690  -1.802   5.299  0.00  0.00    +0.000 N 
ATOM      9  H   UNL     1       2.477   1.171   7.152  0.00  0.00    +0.000 HD
ATOM     10  H   UNL     1       7.049  -2.735   5.420  0.00  0.00    +0.000 HD
ENDROOT
BRANCH   8  11
ATOM     11  C   UNL     1       7.206  -0.855   4.335  0.00  0.00    +0.000 C 
ATOM     12  C   UNL     1       8.467  -0.198   4.886  0.00  0.00    +0.000 C 
ATOM     13  C   UNL     1       7.522  -1.554   3.017  0.00  0.00    +0.000 C 
ENDBRANCH   8  11
BRANCH   4  14
ATOM     14  N   UNL     1       3.753   2.043   5.715  0.00  0.00    +0.000 NA
ATOM     15  N   UNL     1       4.079   2.875   5.046  0.00  0.00    +0.000 NA
ENDBRANCH   4  14
BRANCH   1  16
ATOM     16  N   UNL     1       3.733  -3.060   8.585  0.00  0.00    +0.000 NA
BRANCH  16  18
ATOM     17  C   UNL     1       1.900  -4.284   7.352  0.00  0.00    +0.000 C 
ATOM     18  C   UNL     1       3.205  -4.361   8.138  0.00  0.00    +0.000 C 
ENDBRANCH  16  18
ENDBRANCH   1  16
TORSDOF 4
ENDMDL
MODEL 4
REMARK minimizedAffinity -4.8605299
REMARK minimizedRMSD -1
REMARK  Name = 
REMARK  7 active torsions:
REMARK  status: ('A' for Active; 'I' for Inactive)
REMARK    1  A    between atoms: C_1  and  C_2
REMARK    2  A    between atoms: C_2  and  N_3
REMARK    3  A    between atoms: N_3  and  C_4
REMARK    4  A    between atoms: N_7  and  N_8
REMARK    5  A    between atoms: N_13  and  C_14
REMARK    6  A    between atoms: C_14  and  C_15
REMARK    7  A    between atoms: C_14  and  C_16
REMARK                            x       y       z     vdW  Elec       q    Type
REMARK                         _______ _______ _______ _____ _____    ______ ____
ROOT
ATOM      1  C   UNL     1       5.516  -1.365   6.093  0.00  0.00    +0.000 A 
ATOM      2  N   UNL     1       6.122  -1.407   4.907  0.00  0.00    +0.000 NA
ATOM      3  C   UNL     1       6.297  -0.246   4.297  0.00  0.00    +0.000 A 
ATOM      4  N   UNL     1       6.951  -0.264   3.082  0.00  0.00    +0.000 N 
ATOM      5  N   UNL     1       5.897   0.917   4.778  0.00  0.00    +0.000 NA
ATOM      6  C   UNL     1       5.294   0.876   5.960  0.00  0.00    +0.000 A 
ATOM      7  N   UNL     1       5.065  -0.239   6.649  0.00  0.00    +0.000 NA
ATOM      8  N   UNL     1       4.887   2.066   6.518  0.00  0.00    +0.000 N 
ATOM      9  H   UNL     1       7.282  -1.166   2.799  0.00  0.00    +0.000 HD
ATOM     10  H   UNL     1       4.481   1.968   7.435  0.00  0.00    +0.000 HD
ENDROOT
BRANCH   8  11
ATOM     11  C   UNL     1       5.102   3.336   5.860  0.00  0.00    +0.000 C 
ATOM     12  C   UNL     1       3.797   4.126   5.830  0.00  0.00    +0.000 C 
ATOM     13  C   UNL     1       6.174   4.140   6.589  0.00  0.00    +0.000 C 
ENDBRANCH   8  11
BRANCH   4  14
ATOM     14  N   UNL     1       7.171   0.902   2.395  0.00  0.00    +0.000 NA
ATOM     15  N   UNL     1       7.271   1.847   1.809  0.00  0.00    +0.000 NA
ENDBRANCH   4  14
BRANCH   1  16
ATOM     16  N   UNL     1       5.208  -2.514   6.726  0.00  0.00    +0.000 NA
BRANCH  16  18
ATOM     17  C   UNL     1       3.393  -3.790   7.933  0.00  0.00    +0.000 C 
ATOM     18  C   UNL     1       4.170  -2.487   7.770  0.00  0.00    +0.000 C 
ENDBRANCH  16  18
ENDBRANCH   1  16
TORSDOF 4
ENDMDL
MODEL 5
REMARK minimizedAffinity -4.7857542
REMARK minimizedRMSD -1
REMARK  Name = 
REMARK  7 active torsions:
REMARK  status: ('A' for Active; 'I' for Inactive)
REMARK    1  A    between atoms: C_1  and  C_2
REMARK    2  A    between atoms: C_2  and  N_3
REMARK    3  A    between atoms: N_3  and  C_4
REMARK    4  A    between atoms: N_7  and  N_8
REMARK    5  A    between atoms: N_13  and  C_14
REMARK    6  A    between atoms: C_14  and  C_15
REMARK    7  A    between atoms: C_14  and  C_16
REMARK                            x       y       z     vdW  Elec       q    Type
REMARK                         _______ _______ _______ _____ _____    ______ ____
ROOT
ATOM      1  C   UNL     1       4.570  -0.377   7.153  0.00  0.00    +0.000 A 
ATOM      2  N   UNL     1       4.913  -1.290   6.245  0.00  0.00    +0.000 NA
ATOM      3  C   UNL     1       5.595  -0.850   5.201  0.00  0.00    +0.000 A 
ATOM      4  N   UNL     1       5.988  -1.784   4.263  0.00  0.00    +0.000 N 
ATOM      5  N   UNL     1       5.927   0.413   5.005  0.00  0.00    +0.000 NA
ATOM      6  C   UNL     1       5.543   1.264   5.949  0.00  0.00    +0.000 A 
ATOM      7  N   UNL     1       4.850   0.923   7.032  0.00  0.00    +0.000 NA
ATOM      8  N   UNL     1       5.895   2.587   5.807  0.00  0.00    +0.000 N 
ATOM      9  H   UNL     1       5.757  -2.731   4.496  0.00  0.00    +0.000 HD
ATOM     10  H   UNL     1       5.614   3.168   6.581  0.00  0.00    +0.000 HD
ENDROOT
BRANCH   8  11
ATOM     11  C   UNL     1       6.661   3.061   4.676  0.00  0.00    +0.000 C 
ATOM     12  C   UNL     1       6.070   4.372   4.167  0.00  0.00    +0.000 C 
ATOM     13  C   UNL     1       8.120   3.273   5.070  0.00  0.00    +0.000 C 
ENDBRANCH   8  11
BRANCH   4  14
ATOM     14  N   UNL     1       6.701  -1.401   3.157  0.00  0.00    +0.000 NA
ATOM     15  N   UNL     1       7.322  -1.163   2.260  0.00  0.00    +0.000 NA
ENDBRANCH   4  14
BRANCH   1  16
ATOM     16  N   UNL     1       3.786  -0.729   8.190  0.00  0.00    +0.000 NA
BRANCH  16  18
ATOM     17  C   UNL     1       2.383   0.657   9.768  0.00  0.00    +0.000 C 
ATOM     18  C   UNL     1       2.523   0.001   8.398  0.00  0.00    +0.000 C 
ENDBRANCH  16  18
ENDBRANCH   1  16
TORSDOF 4
ENDMDL
MODEL 6
REMARK minimizedAffinity -4.67068386
REMARK minimizedRMSD -1
REMARK  Name = 
REMARK  7 active torsions:
REMARK  status: ('A' for Active; 'I' for Inactive)
REMARK    1  A    between atoms: C_1  and  C_2
REMARK    2  A    between atoms: C_2  and  N_3
REMARK    3  A    between atoms: N_3  and  C_4
REMARK    4  A    between atoms: N_7  and  N_8
REMARK    5  A    between atoms: N_13  and  C_14
REMARK    6  A    between atoms: C_14  and  C_15
REMARK    7  A    between atoms: C_14  and  C_16
REMARK                            x       y       z     vdW  Elec       q    Type
REMARK                         _______ _______ _______ _____ _____    ______ ____
ROOT
ATOM      1  C   UNL     1      -0.733   3.118   6.535  0.00  0.00    +0.000 A 
ATOM      2  N   UNL     1      -1.346   3.443   7.672  0.00  0.00    +0.000 NA
ATOM      3  C   UNL     1      -2.637   3.164   7.742  0.00  0.00    +0.000 A 
ATOM      4  N   UNL     1      -3.286   3.464   8.923  0.00  0.00    +0.000 N 
ATOM      5  N   UNL     1      -3.335   2.613   6.764  0.00  0.00    +0.000 NA
ATOM      6  C   UNL     1      -2.655   2.326   5.661  0.00  0.00    +0.000 A 
ATOM      7  N   UNL     1      -1.360   2.573   5.490  0.00  0.00    +0.000 NA
ATOM      8  N   UNL     1      -3.332   1.721   4.626  0.00  0.00    +0.000 N 
ATOM      9  H   UNL     1      -2.692   3.824   9.644  0.00  0.00    +0.000 HD
ATOM     10  H   UNL     1      -2.747   1.487   3.840  0.00  0.00    +0.000 HD
ENDROOT
BRANCH   8  11
ATOM     11  C   UNL     1      -4.738   1.394   4.714  0.00  0.00    +0.000 C 
ATOM     12  C   UNL     1      -5.487   2.029   3.547  0.00  0.00    +0.000 C 
ATOM     13  C   UNL     1      -4.937  -0.118   4.693  0.00  0.00    +0.000 C 
ENDBRANCH   8  11
BRANCH   4  14
ATOM     14  N   UNL     1      -4.623   3.199   9.068  0.00  0.00    +0.000 NA
ATOM     15  N   UNL     1      -5.725   3.065   9.191  0.00  0.00    +0.000 NA
ENDBRANCH   4  14
BRANCH   1  16
ATOM     16  N   UNL     1       0.555   3.466   6.349  0.00  0.00    +0.000 NA
BRANCH  16  18
ATOM     17  C   UNL     1       2.295   2.126   7.596  0.00  0.00    +0.000 C 
ATOM     18  C   UNL     1       1.474   3.408   7.498  0.00  0.00    +0.000 C 
ENDBRANCH  16  18
ENDBRANCH   1  16
TORSDOF 4
ENDMDL
MODEL 7
REMARK minimizedAffinity -4.61385393
REMARK minimizedRMSD -1
REMARK  Name = 
REMARK  7 active torsions:
REMARK  status: ('A' for Active; 'I' for Inactive)
REMARK    1  A    between atoms: C_1  and  C_2
REMARK    2  A    between atoms: C_2  and  N_3
REMARK    3  A    between atoms: N_3  and  C_4
REMARK    4  A    between atoms: N_7  and  N_8
REMARK    5  A    between atoms: N_13  and  C_14
REMARK    6  A    between atoms: C_14  and  C_15
REMARK    7  A    between atoms: C_14  and  C_16
REMARK                            x       y       z     vdW  Elec       q    Type
REMARK                         _______ _______ _______ _____ _____    ______ ____
ROOT
ATOM      1  C   UNL     1       3.794   1.580   7.060  0.00  0.00    +0.000 A 
ATOM      2  N   UNL     1       3.971   0.321   6.662  0.00  0.00    +0.000 NA
ATOM      3  C   UNL     1       4.880   0.126   5.721  0.00  0.00    +0.000 A 
ATOM      4  N   UNL     1       5.103  -1.174   5.316  0.00  0.00    +0.000 N 
ATOM      5  N   UNL     1       5.586   1.089   5.157  0.00  0.00    +0.000 NA
ATOM      6  C   UNL     1       5.347   2.317   5.601  0.00  0.00    +0.000 A 
ATOM      7  N   UNL     1       4.450   2.617   6.537  0.00  0.00    +0.000 NA
ATOM      8  N   UNL     1       6.081   3.351   5.067  0.00  0.00    +0.000 N 
ATOM      9  H   UNL     1       4.580  -1.863   5.821  0.00  0.00    +0.000 HD
ATOM     10  H   UNL     1       5.883   4.248   5.482  0.00  0.00    +0.000 HD
ENDROOT
BRANCH   8  11
ATOM     11  C   UNL     1       7.092   3.133   4.055  0.00  0.00    +0.000 C 
ATOM     12  C   UNL     1       6.941   4.170   2.947  0.00  0.00    +0.000 C 
ATOM     13  C   UNL     1       8.487   3.229   4.665  0.00  0.00    +0.000 C 
ENDBRANCH   8  11
BRANCH   4  14
ATOM     14  N   UNL     1       6.033  -1.451   4.348  0.00  0.00    +0.000 NA
ATOM     15  N   UNL     1       6.785  -1.757   3.582  0.00  0.00    +0.000 NA
ENDBRANCH   4  14
BRANCH   1  16
ATOM     16  N   UNL     1       2.813   1.869   7.938  0.00  0.00    +0.000 NA
BRANCH  16  18
ATOM     17  C   UNL     1       2.892   0.555  10.094  0.00  0.00    +0.000 C 
ATOM     18  C   UNL     1       2.234   0.774   8.735  0.00  0.00    +0.000 C 
ENDBRANCH  16  18
ENDBRANCH   1  16
TORSDOF 4
ENDMDL
MODEL 8
REMARK minimizedAffinity -4.59727287
REMARK minimizedRMSD -1
REMARK  Name = 
REMARK  7 active torsions:
REMARK  status: ('A' for Active; 'I' for Inactive)
REMARK    1  A    between atoms: C_1  and  C_2
REMARK    2  A    between atoms: C_2  and  N_3
REMARK    3  A    between atoms: N_3  and  C_4
REMARK    4  A    between atoms: N_7  and  N_8
REMARK    5  A    between atoms: N_13  and  C_14
REMARK    6  A    between atoms: C_14  and  C_15
REMARK    7  A    between atoms: C_14  and  C_16
REMARK                            x       y       z     vdW  Elec       q    Type
REMARK                         _______ _______ _______ _____ _____    ______ ____
ROOT
ATOM      1  C   UNL     1       1.788   2.275   7.695  0.00  0.00    +0.000 A 
ATOM      2  N   UNL     1       2.669   2.685   6.784  0.00  0.00    +0.000 NA
ATOM      3  C   UNL     1       3.586   1.804   6.417  0.00  0.00    +0.000 A 
ATOM      4  N   UNL     1       4.490   2.198   5.451  0.00  0.00    +0.000 N 
ATOM      5  N   UNL     1       3.683   0.582   6.907  0.00  0.00    +0.000 NA
ATOM      6  C   UNL     1       2.774   0.250   7.816  0.00  0.00    +0.000 A 
ATOM      7  N   UNL     1       1.818   1.064   8.255  0.00  0.00    +0.000 NA
ATOM      8  N   UNL     1       2.814  -1.025   8.333  0.00  0.00    +0.000 N 
ATOM      9  H   UNL     1       4.329   3.113   5.078  0.00  0.00    +0.000 HD
ATOM     10  H   UNL     1       2.068  -1.225   8.980  0.00  0.00    +0.000 HD
ENDROOT
BRANCH   8  11
ATOM     11  C   UNL     1       3.802  -1.994   7.913  0.00  0.00    +0.000 C 
ATOM     12  C   UNL     1       5.006  -1.938   8.848  0.00  0.00    +0.000 C 
ATOM     13  C   UNL     1       3.209  -3.399   7.919  0.00  0.00    +0.000 C 
ENDBRANCH   8  11
BRANCH   4  14
ATOM     14  N   UNL     1       5.465   1.336   5.020  0.00  0.00    +0.000 NA
ATOM     15  N   UNL     1       6.246   0.663   4.591  0.00  0.00    +0.000 NA
ENDBRANCH   4  14
BRANCH   1  16
ATOM     16  N   UNL     1       0.891   3.147   8.194  0.00  0.00    +0.000 NA
BRANCH  16  18
ATOM     17  C   UNL     1      -1.158   4.601   7.940  0.00  0.00    +0.000 C 
ATOM     18  C   UNL     1      -0.046   3.804   7.267  0.00  0.00    +0.000 C 
ENDBRANCH  16  18
ENDBRANCH   1  16
TORSDOF 4
ENDMDL
MODEL 9
REMARK minimizedAffinity -4.5247221
REMARK minimizedRMSD -1
REMARK  Name = 
REMARK  7 active torsions:
REMARK  status: ('A' for Active; 'I' for Inactive)
REMARK    1  A    between atoms: C_1  and  C_2
REMARK    2  A    between atoms: C_2  and  N_3
REMARK    3  A    between atoms: N_3  and  C_4
REMARK    4  A    between atoms: N_7  and  N_8
REMARK    5  A    between atoms: N_13  and  C_14
REMARK    6  A    between atoms: C_14  and  C_15
REMARK    7  A    between atoms: C_14  and  C_16
REMARK                            x       y       z     vdW  Elec       q    Type
REMARK                         _______ _______ _______ _____ _____    ______ ____
ROOT
ATOM      1  C   UNL     1       3.430   0.452   7.066  0.00  0.00    +0.000 A 
ATOM      2  N   UNL     1       3.250   1.689   6.607  0.00  0.00    +0.000 NA
ATOM      3  C   UNL     1       4.150   2.130   5.744  0.00  0.00    +0.000 A 
ATOM      4  N   UNL     1       3.966   3.399   5.231  0.00  0.00    +0.000 N 
ATOM      5  N   UNL     1       5.199   1.436   5.340  0.00  0.00    +0.000 NA
ATOM      6  C   UNL     1       5.313   0.215   5.849  0.00  0.00    +0.000 A 
ATOM      7  N   UNL     1       4.467  -0.316   6.726  0.00  0.00    +0.000 NA
ATOM      8  N   UNL     1       6.372  -0.560   5.434  0.00  0.00    +0.000 N 
ATOM      9  H   UNL     1       3.124   3.850   5.529  0.00  0.00    +0.000 HD
ATOM     10  H   UNL     1       6.372  -1.490   5.822  0.00  0.00    +0.000 HD
ENDROOT
BRANCH   8  11
ATOM     11  C   UNL     1       7.342  -0.084   4.472  0.00  0.00    +0.000 C 
ATOM     12  C   UNL     1       8.677   0.164   5.167  0.00  0.00    +0.000 C 
ATOM     13  C   UNL     1       7.526  -1.103   3.351  0.00  0.00    +0.000 C 
ENDBRANCH   8  11
BRANCH   4  14
ATOM     14  N   UNL     1       4.857   3.919   4.329  0.00  0.00    +0.000 NA
ATOM     15  N   UNL     1       5.558   4.420   3.618  0.00  0.00    +0.000 NA
ENDBRANCH   4  14
BRANCH   1  16
ATOM     16  N   UNL     1       2.615  -0.028   8.026  0.00  0.00    +0.000 NA
BRANCH  16  18
ATOM     17  C   UNL     1       3.664   0.909  10.124  0.00  0.00    +0.000 C 
ATOM     18  C   UNL     1       3.184  -0.317   9.353  0.00  0.00    +0.000 C 
ENDBRANCH  16  18
ENDBRANCH   1  16
TORSDOF 4
ENDMDL
