MODEL 1
REMARK minimizedAffinity -5.25815535
REMARK minimizedRMSD -1
REMARK  Name = 
REMARK  7 active torsions:
REMARK  status: ('A' for Active; 'I' for Inactive)
REMARK    1  A    between atoms: N_2  and  N_3
REMARK    2  A    between atoms: C_6  and  N_7
REMARK    3  A    between atoms: N_7  and  C_8
REMARK    4  A    between atoms: C_8  and  C_9
REMARK    5  A    between atoms: C_8  and  C_10
REMARK    6  A    between atoms: C_12  and  S_14
REMARK    7  A    between atoms: S_14  and  C_15
REMARK                            x       y       z     vdW  Elec       q    Type
REMARK                         _______ _______ _______ _____ _____    ______ ____
ROOT
ATOM      1  N   UNL     1      -2.778   3.003   4.401  0.00  0.00    +0.000 N 
ATOM      2  C   UNL     1      -1.929   3.546   5.343  0.00  0.00    +0.000 A 
ATOM      3  N   UNL     1      -1.031   2.748   5.887  0.00  0.00    +0.000 NA
ATOM      4  C   UNL     1      -0.150   3.290   6.716  0.00  0.00    +0.000 A 
ATOM      5  N   UNL     1      -0.189   4.565   7.071  0.00  0.00    +0.000 NA
ATOM      6  C   UNL     1      -1.166   5.285   6.514  0.00  0.00    +0.000 A 
ATOM      7  N   UNL     1      -2.041   4.848   5.601  0.00  0.00    +0.000 NA
ATOM      8  H   UNL     1      -3.032   3.598   3.642  0.00  0.00    +0.000 HD
ENDROOT
BRANCH   1  10
ATOM      9  N   UNL     1      -3.679   0.692   4.585  0.00  0.00    +0.000 NA
ATOM     10  N   UNL     1      -3.195   1.695   4.505  0.00  0.00    +0.000 NA
ENDBRANCH   1  10
BRANCH   6  11
ATOM     11  S   UNL     1      -1.258   6.982   7.091  0.00  0.00    +0.000 S 
ATOM     12  C   UNL     1      -2.261   6.863   8.592  0.00  0.00    +0.000 C 
ENDBRANCH   6  11
BRANCH   4  13
ATOM     13  N   UNL     1       0.842   2.548   7.242  0.00  0.00    +0.000 NA
BRANCH  13  14
ATOM     14  C   UNL     1       0.543   1.634   8.370  0.00  0.00    +0.000 C 
ATOM     15  C   UNL     1       1.439   0.389   8.381  0.00  0.00    +0.000 C 
ATOM     16  C   UNL     1       0.544   2.340   9.731  0.00  0.00    +0.000 C 
ENDBRANCH  13  14
ENDBRANCH   4  13
TORSDOF 4
ENDMDL
MODEL 2
REMARK minimizedAffinity -5.09943056
REMARK minimizedRMSD -1
REMARK  Name = 
REMARK  7 active torsions:
REMARK  status: ('A' for Active; 'I' for Inactive)
REMARK    1  A    between atoms: N_2  and  N_3
REMARK    2  A    between atoms: C_6  and  N_7
REMARK    3  A    between atoms: N_7  and  C_8
REMARK    4  A    between atoms: C_8  and  C_9
REMARK    5  A    between atoms: C_8  and  C_10
REMARK    6  A    between atoms: C_12  and  S_14
REMARK    7  A    between atoms: S_14  and  C_15
REMARK                            x       y       z     vdW  Elec       q    Type
REMARK                         _______ _______ _______ _____ _____    ______ ____
ROOT
ATOM      1  N   UNL     1       4.377  -0.668   6.464  0.00  0.00    +0.000 N 
ATOM      2  C   UNL     1       4.362   0.686   6.723  0.00  0.00    +0.000 A 
ATOM      3  N   UNL     1       4.341   1.505   5.689  0.00  0.00    +0.000 NA
ATOM      4  C   UNL     1       4.224   2.802   5.935  0.00  0.00    +0.000 A 
ATOM      5  N   UNL     1       4.207   3.301   7.161  0.00  0.00    +0.000 NA
ATOM      6  C   UNL     1       4.290   2.403   8.146  0.00  0.00    +0.000 A 
ATOM      7  N   UNL     1       4.319   1.073   7.997  0.00  0.00    +0.000 NA
ATOM      8  H   UNL     1       3.866  -1.243   7.099  0.00  0.00    +0.000 HD
ENDROOT
BRANCH   1  10
ATOM      9  N   UNL     1       5.687  -1.495   4.518  0.00  0.00    +0.000 NA
ATOM     10  N   UNL     1       5.030  -1.164   5.358  0.00  0.00    +0.000 NA
ENDBRANCH   1  10
BRANCH   6  11
ATOM     11  S   UNL     1       4.369   3.113   9.793  0.00  0.00    +0.000 S 
ATOM     12  C   UNL     1       2.855   4.098   9.900  0.00  0.00    +0.000 C 
ENDBRANCH   6  11
BRANCH   4  13
ATOM     13  N   UNL     1       4.115   3.684   4.924  0.00  0.00    +0.000 NA
BRANCH  13  14
ATOM     14  C   UNL     1       5.049   4.833   4.861  0.00  0.00    +0.000 C 
ATOM     15  C   UNL     1       6.080   4.701   3.733  0.00  0.00    +0.000 C 
ATOM     16  C   UNL     1       4.331   6.186   4.812  0.00  0.00    +0.000 C 
ENDBRANCH  13  14
ENDBRANCH   4  13
TORSDOF 4
ENDMDL
MODEL 3
REMARK minimizedAffinity -5.06539011
REMARK minimizedRMSD -1
REMARK  Name = 
REMARK  7 active torsions:
REMARK  status: ('A' for Active; 'I' for Inactive)
REMARK    1  A    between atoms: N_2  and  N_3
REMARK    2  A    between atoms: C_6  and  N_7
REMARK    3  A    between atoms: N_7  and  C_8
REMARK    4  A    between atoms: C_8  and  C_9
REMARK    5  A    between atoms: C_8  and  C_10
REMARK    6  A    between atoms: C_12  and  S_14
REMARK    7  A    between atoms: S_14  and  C_15
REMARK                            x       y       z     vdW  Elec       q    Type
REMARK                         _______ _______ _______ _____ _____    ______ ____
ROOT
ATOM      1  N   UNL     1       4.537   1.644   5.501  0.00  0.00    +0.000 N 
ATOM      2  C   UNL     1       4.072   0.963   6.607  0.00  0.00    +0.000 A 
ATOM      3  N   UNL     1       2.791   1.075   6.898  0.00  0.00    +0.000 NA
ATOM      4  C   UNL     1       2.323   0.342   7.899  0.00  0.00    +0.000 A 
ATOM      5  N   UNL     1       3.098  -0.422   8.652  0.00  0.00    +0.000 NA
ATOM      6  C   UNL     1       4.392  -0.430   8.321  0.00  0.00    +0.000 A 
ATOM      7  N   UNL     1       4.938   0.203   7.275  0.00  0.00    +0.000 NA
ATOM      8  H   UNL     1       5.248   1.188   4.970  0.00  0.00    +0.000 HD
ENDROOT
BRANCH   1  10
ATOM      9  N   UNL     1       3.700   3.905   4.889  0.00  0.00    +0.000 NA
ATOM     10  N   UNL     1       3.997   2.860   5.148  0.00  0.00    +0.000 NA
ENDBRANCH   1  10
BRANCH   6  11
ATOM     11  S   UNL     1       5.434  -1.391   9.420  0.00  0.00    +0.000 S 
ATOM     12  C   UNL     1       6.302  -2.516   8.300  0.00  0.00    +0.000 C 
ENDBRANCH   6  11
BRANCH   4  13
ATOM     13  N   UNL     1       1.010   0.347   8.196  0.00  0.00    +0.000 NA
BRANCH  13  14
ATOM     14  C   UNL     1       0.353   1.626   8.557  0.00  0.00    +0.000 C 
ATOM     15  C   UNL     1      -1.178   1.544   8.510  0.00  0.00    +0.000 C 
ATOM     16  C   UNL     1       0.846   2.196   9.892  0.00  0.00    +0.000 C 
ENDBRANCH  13  14
ENDBRANCH   4  13
TORSDOF 4
ENDMDL
MODEL 4
REMARK minimizedAffinity -5.0133729
REMARK minimizedRMSD -1
REMARK  Name = 
REMARK  7 active torsions:
REMARK  status: ('A' for Active; 'I' for Inactive)
REMARK    1  A    between atoms: N_2  and  N_3
REMARK    2  A    between atoms: C_6  and  N_7
REMARK    3  A    between atoms: N_7  and  C_8
REMARK    4  A    between atoms: C_8  and  C_9
REMARK    5  A    between atoms: C_8  and  C_10
REMARK    6  A    between atoms: C_12  and  S_14
REMARK    7  A    between atoms: S_14  and  C_15
REMARK                            x       y       z     vdW  Elec       q    Type
REMARK                         _______ _______ _______ _____ _____    ______ ____
ROOT
ATOM      1  N   UNL     1       6.169  -1.905   4.630  0.00  0.00    +0.000 N 
ATOM      2  C   UNL     1       5.778  -0.955   5.551  0.00  0.00    +0.000 A 
ATOM      3  N   UNL     1       5.305   0.186   5.089  0.00  0.00    +0.000 NA
ATOM      4  C   UNL     1       4.835   1.057   5.969  0.00  0.00    +0.000 A 
ATOM      5  N   UNL     1       4.896   0.860   7.277  0.00  0.00    +0.000 NA
ATOM      6  C   UNL     1       5.442  -0.298   7.657  0.00  0.00    +0.000 A 
ATOM      7  N   UNL     1       5.858  -1.275   6.842  0.00  0.00    +0.000 NA
ATOM      8  H   UNL     1       5.994  -2.856   4.877  0.00  0.00    +0.000 HD
ENDROOT
BRANCH   1  10
ATOM      9  N   UNL     1       7.074  -1.326   2.386  0.00  0.00    +0.000 NA
ATOM     10  N   UNL     1       6.722  -1.528   3.427  0.00  0.00    +0.000 NA
ENDBRANCH   1  10
BRANCH   6  11
ATOM     11  S   UNL     1       5.605  -0.495   9.433  0.00  0.00    +0.000 S 
ATOM     12  C   UNL     1       3.901  -0.372  10.028  0.00  0.00    +0.000 C 
ENDBRANCH   6  11
BRANCH   4  13
ATOM     13  N   UNL     1       4.265   2.206   5.559  0.00  0.00    +0.000 NA
BRANCH  13  14
ATOM     14  C   UNL     1       4.943   3.493   5.842  0.00  0.00    +0.000 C 
ATOM     15  C   UNL     1       6.198   3.706   4.986  0.00  0.00    +0.000 C 
ATOM     16  C   UNL     1       3.998   4.698   5.766  0.00  0.00    +0.000 C 
ENDBRANCH  13  14
ENDBRANCH   4  13
TORSDOF 4
ENDMDL
MODEL 5
REMARK minimizedAffinity -5.0054512
REMARK minimizedRMSD -1
REMARK  Name = 
REMARK  7 active torsions:
REMARK  status: ('A' for Active; 'I' for Inactive)
REMARK    1  A    between atoms: N_2  and  N_3
REMARK    2  A    between atoms: C_6  and  N_7
REMARK    3  A    between atoms: N_7  and  C_8
REMARK    4  A    between atoms: C_8  and  C_9
REMARK    5  A    between atoms: C_8  and  C_10
REMARK    6  A    between atoms: C_12  and  S_14
REMARK    7  A    between atoms: S_14  and  C_15
REMARK                            x       y       z     vdW  Elec       q    Type
REMARK                         _______ _______ _______ _____ _____    ______ ____
ROOT
ATOM      1  N   UNL     1       5.307   1.029   5.527  0.00  0.00    +0.000 N 
ATOM      2  C   UNL     1       4.203   1.729   5.967  0.00  0.00    +0.000 A 
ATOM      3  N   UNL     1       3.339   1.088   6.731  0.00  0.00    +0.000 NA
ATOM      4  C   UNL     1       2.333   1.785   7.238  0.00  0.00    +0.000 A 
ATOM      5  N   UNL     1       2.123   3.059   6.945  0.00  0.00    +0.000 NA
ATOM      6  C   UNL     1       3.015   3.611   6.118  0.00  0.00    +0.000 A 
ATOM      7  N   UNL     1       4.110   3.014   5.632  0.00  0.00    +0.000 NA
ATOM      8  H   UNL     1       6.158   1.546   5.460  0.00  0.00    +0.000 HD
ENDROOT
BRANCH   1  10
ATOM      9  N   UNL     1       5.150  -1.366   4.873  0.00  0.00    +0.000 NA
ATOM     10  N   UNL     1       5.219  -0.317   5.249  0.00  0.00    +0.000 NA
ENDBRANCH   1  10
BRANCH   6  11
ATOM     11  S   UNL     1       2.650   5.307   5.657  0.00  0.00    +0.000 S 
ATOM     12  C   UNL     1       4.246   5.942   5.092  0.00  0.00    +0.000 C 
ENDBRANCH   6  11
BRANCH   4  13
ATOM     13  N   UNL     1       1.462   1.212   8.090  0.00  0.00    +0.000 NA
BRANCH  13  14
ATOM     14  C   UNL     1       0.337   2.014   8.625  0.00  0.00    +0.000 C 
ATOM     15  C   UNL     1      -1.035   1.418   8.283  0.00  0.00    +0.000 C 
ATOM     16  C   UNL     1       0.467   2.304  10.125  0.00  0.00    +0.000 C 
ENDBRANCH  13  14
ENDBRANCH   4  13
TORSDOF 4
ENDMDL
MODEL 6
REMARK minimizedAffinity -4.97395802
REMARK minimizedRMSD -1
REMARK  Name = 
REMARK  7 active torsions:
REMARK  status: ('A' for Active; 'I' for Inactive)
REMARK    1  A    between atoms: N_2  and  N_3
REMARK    2  A    between atoms: C_6  and  N_7
REMARK    3  A    between atoms: N_7  and  C_8
REMARK    4  A    between atoms: C_8  and  C_9
REMARK    5  A    between atoms: C_8  and  C_10
REMARK    6  A    between atoms: C_12  and  S_14
REMARK    7  A    between atoms: S_14  and  C_15
REMARK                            x       y       z     vdW  Elec       q    Type
REMARK                         _______ _______ _______ _____ _____    ______ ____
ROOT
ATOM      1  N   UNL     1       6.971  -1.249   2.925  0.00  0.00    +0.000 N 
ATOM      2  C   UNL     1       6.574  -1.616   4.194  0.00  0.00    +0.000 A 
ATOM      3  N   UNL     1       5.743  -0.813   4.829  0.00  0.00    +0.000 NA
ATOM      4  C   UNL     1       5.281  -1.213   6.005  0.00  0.00    +0.000 A 
ATOM      5  N   UNL     1       5.680  -2.332   6.590  0.00  0.00    +0.000 NA
ATOM      6  C   UNL     1       6.566  -3.054   5.899  0.00  0.00    +0.000 A 
ATOM      7  N   UNL     1       7.017  -2.778   4.670  0.00  0.00    +0.000 NA
ATOM      8  H   UNL     1       7.096  -1.992   2.271  0.00  0.00    +0.000 HD
ENDROOT
BRANCH   1  10
ATOM      9  N   UNL     1       7.143   1.133   2.228  0.00  0.00    +0.000 NA
ATOM     10  N   UNL     1       7.130   0.079   2.596  0.00  0.00    +0.000 NA
ENDBRANCH   1  10
BRANCH   6  11
ATOM     11  S   UNL     1       7.165  -4.512   6.758  0.00  0.00    +0.000 S 
ATOM     12  C   UNL     1       5.670  -5.501   7.001  0.00  0.00    +0.000 C 
ENDBRANCH   6  11
BRANCH   4  13
ATOM     13  N   UNL     1       4.368  -0.479   6.669  0.00  0.00    +0.000 NA
BRANCH  13  14
ATOM     14  C   UNL     1       4.779   0.805   7.285  0.00  0.00    +0.000 C 
ATOM     15  C   UNL     1       4.063   2.016   6.673  0.00  0.00    +0.000 C 
ATOM     16  C   UNL     1       4.667   0.798   8.814  0.00  0.00    +0.000 C 
ENDBRANCH  13  14
ENDBRANCH   4  13
TORSDOF 4
ENDMDL
MODEL 7
REMARK minimizedAffinity -4.94329548
REMARK minimizedRMSD -1
REMARK  Name = 
REMARK  7 active torsions:
REMARK  status: ('A' for Active; 'I' for Inactive)
REMARK    1  A    between atoms: N_2  and  N_3
REMARK    2  A    between atoms: C_6  and  N_7
REMARK    3  A    between atoms: N_7  and  C_8
REMARK    4  A    between atoms: C_8  and  C_9
REMARK    5  A    between atoms: C_8  and  C_10
REMARK    6  A    between atoms: C_12  and  S_14
REMARK    7  A    between atoms: S_14  and  C_15
REMARK                            x       y       z     vdW  Elec       q    Type
REMARK                         _______ _______ _______ _____ _____    ______ ____
ROOT
ATOM      1  N   UNL     1       7.334  -3.162   2.726  0.00  0.00    +0.000 N 
ATOM      2  C   UNL     1       7.045  -1.938   3.293  0.00  0.00    +0.000 A 
ATOM      3  N   UNL     1       6.158  -1.913   4.269  0.00  0.00    +0.000 NA
ATOM      4  C   UNL     1       5.954  -0.756   4.883  0.00  0.00    +0.000 A 
ATOM      5  N   UNL     1       6.539   0.370   4.504  0.00  0.00    +0.000 NA
ATOM      6  C   UNL     1       7.378   0.261   3.471  0.00  0.00    +0.000 A 
ATOM      7  N   UNL     1       7.716  -0.876   2.850  0.00  0.00    +0.000 NA
ATOM      8  H   UNL     1       8.281  -3.304   2.446  0.00  0.00    +0.000 HD
ENDROOT
BRANCH   1  10
ATOM      9  N   UNL     1       5.630  -4.940   2.374  0.00  0.00    +0.000 NA
ATOM     10  N   UNL     1       6.361  -4.129   2.610  0.00  0.00    +0.000 NA
ENDBRANCH   1  10
BRANCH   6  11
ATOM     11  S   UNL     1       8.078   1.817   2.915  0.00  0.00    +0.000 S 
ATOM     12  C   UNL     1       7.424   3.019   4.098  0.00  0.00    +0.000 C 
ENDBRANCH   6  11
BRANCH   4  13
ATOM     13  N   UNL     1       5.124  -0.677   5.939  0.00  0.00    +0.000 NA
BRANCH  13  14
ATOM     14  C   UNL     1       5.410  -1.486   7.148  0.00  0.00    +0.000 C 
ATOM     15  C   UNL     1       6.464  -0.844   8.058  0.00  0.00    +0.000 C 
ATOM     16  C   UNL     1       4.147  -1.865   7.929  0.00  0.00    +0.000 C 
ENDBRANCH  13  14
ENDBRANCH   4  13
TORSDOF 4
ENDMDL
MODEL 8
REMARK minimizedAffinity -4.80682898
REMARK minimizedRMSD -1
REMARK  Name = 
REMARK  7 active torsions:
REMARK  status: ('A' for Active; 'I' for Inactive)
REMARK    1  A    between atoms: N_2  and  N_3
REMARK    2  A    between atoms: C_6  and  N_7
REMARK    3  A    between atoms: N_7  and  C_8
REMARK    4  A    between atoms: C_8  and  C_9
REMARK    5  A    between atoms: C_8  and  C_10
REMARK    6  A    between atoms: C_12  and  S_14
REMARK    7  A    between atoms: S_14  and  C_15
REMARK                            x       y       z     vdW  Elec       q    Type
REMARK                         _______ _______ _______ _____ _____    ______ ____
ROOT
ATOM      1  N   UNL     1      -4.989  -0.348   3.867  0.00  0.00    +0.000 N 
ATOM      2  C   UNL     1      -4.669   0.774   4.603  0.00  0.00    +0.000 A 
ATOM      3  N   UNL     1      -3.390   1.042   4.781  0.00  0.00    +0.000 NA
ATOM      4  C   UNL     1      -3.080   2.172   5.401  0.00  0.00    +0.000 A 
ATOM      5  N   UNL     1      -3.993   2.986   5.908  0.00  0.00    +0.000 NA
ATOM      6  C   UNL     1      -5.261   2.606   5.730  0.00  0.00    +0.000 A 
ATOM      7  N   UNL     1      -5.671   1.534   5.041  0.00  0.00    +0.000 NA
ATOM      8  H   UNL     1      -5.796  -0.276   3.284  0.00  0.00    +0.000 HD
ENDROOT
BRANCH   1  10
ATOM      9  N   UNL     1      -3.627  -2.429   3.831  0.00  0.00    +0.000 NA
ATOM     10  N   UNL     1      -4.194  -1.471   3.917  0.00  0.00    +0.000 NA
ENDBRANCH   1  10
BRANCH   6  11
ATOM     11  S   UNL     1      -6.472   3.673   6.515  0.00  0.00    +0.000 S 
ATOM     12  C   UNL     1      -7.349   2.559   7.639  0.00  0.00    +0.000 C 
ENDBRANCH   6  11
BRANCH   4  13
ATOM     13  N   UNL     1      -1.795   2.545   5.543  0.00  0.00    +0.000 NA
BRANCH  13  14
ATOM     14  C   UNL     1      -1.355   3.155   6.820  0.00  0.00    +0.000 C 
ATOM     15  C   UNL     1      -0.767   2.130   7.799  0.00  0.00    +0.000 C 
ATOM     16  C   UNL     1      -0.412   4.348   6.621  0.00  0.00    +0.000 C 
ENDBRANCH  13  14
ENDBRANCH   4  13
TORSDOF 4
ENDMDL
MODEL 9
REMARK minimizedAffinity -4.79820013
REMARK minimizedRMSD -1
REMARK  Name = 
REMARK  7 active torsions:
REMARK  status: ('A' for Active; 'I' for Inactive)
REMARK    1  A    between atoms: N_2  and  N_3
REMARK    2  A    between atoms: C_6  and  N_7
REMARK    3  A    between atoms: N_7  and  C_8
REMARK    4  A    between atoms: C_8  and  C_9
REMARK    5  A    between atoms: C_8  and  C_10
REMARK    6  A    between atoms: C_12  and  S_14
REMARK    7  A    between atoms: S_14  and  C_15
REMARK                            x       y       z     vdW  Elec       q    Type
REMARK                         _______ _______ _______ _____ _____    ______ ____
ROOT
ATOM      1  N   UNL     1       7.347   1.765   3.061  0.00  0.00    +0.000 N 
ATOM      2  C   UNL     1       6.982   0.520   3.529  0.00  0.00    +0.000 A 
ATOM      3  N   UNL     1       7.243  -0.521   2.763  0.00  0.00    +0.000 NA
ATOM      4  C   UNL     1       6.986  -1.725   3.254  0.00  0.00    +0.000 A 
ATOM      5  N   UNL     1       6.413  -1.912   4.433  0.00  0.00    +0.000 NA
ATOM      6  C   UNL     1       6.131  -0.799   5.116  0.00  0.00    +0.000 A 
ATOM      7  N   UNL     1       6.437   0.450   4.743  0.00  0.00    +0.000 NA
ATOM      8  H   UNL     1       7.671   2.415   3.745  0.00  0.00    +0.000 HD
ENDROOT
BRANCH   1  10
ATOM      9  N   UNL     1       7.129   2.347   0.653  0.00  0.00    +0.000 NA
ATOM     10  N   UNL     1       7.302   2.048   1.714  0.00  0.00    +0.000 NA
ENDBRANCH   1  10
BRANCH   6  11
ATOM     11  S   UNL     1       5.264  -1.076   6.662  0.00  0.00    +0.000 S 
ATOM     12  C   UNL     1       4.445   0.506   6.974  0.00  0.00    +0.000 C 
ENDBRANCH   6  11
BRANCH   4  13
ATOM     13  N   UNL     1       7.304  -2.832   2.557  0.00  0.00    +0.000 NA
BRANCH  13  14
ATOM     14  C   UNL     1       7.315  -4.144   3.246  0.00  0.00    +0.000 C 
ATOM     15  C   UNL     1       6.569  -5.233   2.466  0.00  0.00    +0.000 C 
ATOM     16  C   UNL     1       8.724  -4.601   3.642  0.00  0.00    +0.000 C 
ENDBRANCH  13  14
ENDBRANCH   4  13
TORSDOF 4
ENDMDL
