MODEL 1
REMARK minimizedAffinity -5.97347927
REMARK minimizedRMSD -1
REMARK  Name = 
REMARK  4 active torsions:
REMARK  status: ('A' for Active; 'I' for Inactive)
REMARK    1  A    between atoms: N_2  and  C_3
REMARK    2  A    between atoms: C_6  and  N_7
REMARK    3  A    between atoms: N_7  and  O_8
REMARK    4  A    between atoms: N_7  and  O_9
REMARK                            x       y       z     vdW  Elec       q    Type
REMARK                         _______ _______ _______ _____ _____    ______ ____
ROOT
ATOM      1  C   UNL     1       4.396  -1.023   7.347  0.00  0.00    +0.000 C 
ATOM      2  C   UNL     1       4.127   0.273   7.364  0.00  0.00    +0.000 A 
ATOM      3  C   UNL     1       4.347   1.279   6.379  0.00  0.00    +0.000 A 
ATOM      4  C   UNL     1       3.844   2.512   6.574  0.00  0.00    +0.000 A 
ATOM      5  C   UNL     1       3.046   2.660   7.848  0.00  0.00    +0.000 A 
ATOM      6  C   UNL     1       3.088   1.960   9.021  0.00  0.00    +0.000 A 
ATOM      7  C   UNL     1       3.517   0.537   8.694  0.00  0.00    +0.000 A 
ATOM      8  N   UNL     1       3.310  -0.543   9.366  0.00  0.00    +0.000 NA
ATOM      9  C   UNL     1       3.804  -1.604   8.593  0.00  0.00    +0.000 C 
ATOM     10  O   UNL     1       3.755  -2.763   8.872  0.00  0.00    +0.000 OA
ATOM     11  C   UNL     1       1.880   2.321  10.125  0.00  0.00    +0.000 C 
ATOM     12  C   UNL     1       0.421   2.037   9.623  0.00  0.00    +0.000 C 
ATOM     13  C   UNL     1       0.626   1.575   8.192  0.00  0.00    +0.000 C 
ATOM     14  C   UNL     1       1.592   2.990   7.758  0.00  0.00    +0.000 C 
ENDROOT
BRANCH   1  16
ATOM     15  O   UNL     1       4.875  -1.398   5.253  0.00  0.00    +0.000 OA
ATOM     16  N   UNL     1       5.121  -1.657   6.432  0.00  0.00    +0.000 NA
ENDBRANCH   1  16
BRANCH   4  17
ATOM     17  N   UNL     1       4.015   3.549   5.625  0.00  0.00    +0.000 N 
BRANCH  17  18
ATOM     18  O   UNL     1       3.010   4.450   5.250  0.00  0.00    +0.000 OA
ATOM     19  H   UNL     1       2.259   4.290   5.838  0.00  0.00    +0.000 HD
ENDBRANCH  17  18
BRANCH  17  20
ATOM     20  O   UNL     1       5.127   3.628   4.811  0.00  0.00    +0.000 OA
ATOM     21  H   UNL     1       4.872   4.379   4.234  0.00  0.00    +0.000 HD
ENDBRANCH  17  20
ENDBRANCH   4  17
TORSDOF 4
ENDMDL
MODEL 2
REMARK minimizedAffinity -5.79292965
REMARK minimizedRMSD -1
REMARK  Name = 
REMARK  4 active torsions:
REMARK  status: ('A' for Active; 'I' for Inactive)
REMARK    1  A    between atoms: N_2  and  C_3
REMARK    2  A    between atoms: C_6  and  N_7
REMARK    3  A    between atoms: N_7  and  O_8
REMARK    4  A    between atoms: N_7  and  O_9
REMARK                            x       y       z     vdW  Elec       q    Type
REMARK                         _______ _______ _______ _____ _____    ______ ____
ROOT
ATOM      1  C   UNL     1       5.183   1.645   5.900  0.00  0.00    +0.000 C 
ATOM      2  C   UNL     1       4.534   0.817   6.703  0.00  0.00    +0.000 A 
ATOM      3  C   UNL     1       4.897  -0.468   7.202  0.00  0.00    +0.000 A 
ATOM      4  C   UNL     1       4.123  -1.054   8.134  0.00  0.00    +0.000 A 
ATOM      5  C   UNL     1       2.945  -0.219   8.575  0.00  0.00    +0.000 A 
ATOM      6  C   UNL     1       2.267   0.784   7.940  0.00  0.00    +0.000 A 
ATOM      7  C   UNL     1       3.248   1.494   7.018  0.00  0.00    +0.000 A 
ATOM      8  N   UNL     1       3.193   2.694   6.553  0.00  0.00    +0.000 NA
ATOM      9  C   UNL     1       4.385   2.910   5.846  0.00  0.00    +0.000 C 
ATOM     10  O   UNL     1       4.712   3.923   5.306  0.00  0.00    +0.000 OA
ATOM     11  C   UNL     1       1.133   1.595   8.869  0.00  0.00    +0.000 C 
ATOM     12  C   UNL     1       1.716   2.335  10.124  0.00  0.00    +0.000 C 
ATOM     13  C   UNL     1       3.188   1.968  10.094  0.00  0.00    +0.000 C 
ATOM     14  C   UNL     1       2.867   0.234   9.996  0.00  0.00    +0.000 C 
ENDROOT
BRANCH   1  16
ATOM     15  O   UNL     1       6.166   0.625   4.241  0.00  0.00    +0.000 OA
ATOM     16  N   UNL     1       6.289   1.363   5.219  0.00  0.00    +0.000 NA
ENDBRANCH   1  16
BRANCH   4  17
ATOM     17  N   UNL     1       4.441  -2.321   8.681  0.00  0.00    +0.000 N 
BRANCH  17  18
ATOM     18  O   UNL     1       5.740  -2.751   8.977  0.00  0.00    +0.000 OA
ATOM     19  H   UNL     1       6.322  -1.990   8.846  0.00  0.00    +0.000 HD
ENDBRANCH  17  18
BRANCH  17  20
ATOM     20  O   UNL     1       3.514  -3.342   8.764  0.00  0.00    +0.000 OA
ATOM     21  H   UNL     1       4.083  -4.073   9.086  0.00  0.00    +0.000 HD
ENDBRANCH  17  20
ENDBRANCH   4  17
TORSDOF 4
ENDMDL
MODEL 3
REMARK minimizedAffinity -5.66596746
REMARK minimizedRMSD -1
REMARK  Name = 
REMARK  4 active torsions:
REMARK  status: ('A' for Active; 'I' for Inactive)
REMARK    1  A    between atoms: N_2  and  C_3
REMARK    2  A    between atoms: C_6  and  N_7
REMARK    3  A    between atoms: N_7  and  O_8
REMARK    4  A    between atoms: N_7  and  O_9
REMARK                            x       y       z     vdW  Elec       q    Type
REMARK                         _______ _______ _______ _____ _____    ______ ____
ROOT
ATOM      1  C   UNL     1       4.226  -0.367   7.647  0.00  0.00    +0.000 C 
ATOM      2  C   UNL     1       5.059  -1.043   6.871  0.00  0.00    +0.000 A 
ATOM      3  C   UNL     1       5.705  -0.669   5.656  0.00  0.00    +0.000 A 
ATOM      4  C   UNL     1       6.633  -1.487   5.126  0.00  0.00    +0.000 A 
ATOM      5  C   UNL     1       6.906  -2.727   5.945  0.00  0.00    +0.000 A 
ATOM      6  C   UNL     1       6.129  -3.393   6.852  0.00  0.00    +0.000 A 
ATOM      7  C   UNL     1       5.215  -2.374   7.515  0.00  0.00    +0.000 A 
ATOM      8  N   UNL     1       4.631  -2.440   8.662  0.00  0.00    +0.000 NA
ATOM      9  C   UNL     1       3.993  -1.207   8.864  0.00  0.00    +0.000 C 
ATOM     10  O   UNL     1       3.381  -0.880   9.835  0.00  0.00    +0.000 OA
ATOM     11  C   UNL     1       6.893  -4.624   7.695  0.00  0.00    +0.000 C 
ATOM     12  C   UNL     1       8.107  -4.165   8.576  0.00  0.00    +0.000 C 
ATOM     13  C   UNL     1       8.217  -2.682   8.275  0.00  0.00    +0.000 C 
ATOM     14  C   UNL     1       8.267  -2.928   6.527  0.00  0.00    +0.000 C 
ENDROOT
BRANCH   1  16
ATOM     15  O   UNL     1       2.594   0.752   6.731  0.00  0.00    +0.000 OA
ATOM     16  N   UNL     1       3.657   0.796   7.353  0.00  0.00    +0.000 NA
ENDBRANCH   1  16
BRANCH   4  17
ATOM     17  N   UNL     1       7.322  -1.164   3.933  0.00  0.00    +0.000 N 
BRANCH  17  18
ATOM     18  O   UNL     1       8.498  -0.405   3.879  0.00  0.00    +0.000 OA
ATOM     19  H   UNL     1       8.781  -0.265   4.794  0.00  0.00    +0.000 HD
ENDBRANCH  17  18
BRANCH  17  20
ATOM     20  O   UNL     1       6.773  -1.377   2.683  0.00  0.00    +0.000 OA
ATOM     21  H   UNL     1       7.456  -0.960   2.116  0.00  0.00    +0.000 HD
ENDBRANCH  17  20
ENDBRANCH   4  17
TORSDOF 4
ENDMDL
MODEL 4
REMARK minimizedAffinity -5.66499138
REMARK minimizedRMSD -1
REMARK  Name = 
REMARK  4 active torsions:
REMARK  status: ('A' for Active; 'I' for Inactive)
REMARK    1  A    between atoms: N_2  and  C_3
REMARK    2  A    between atoms: C_6  and  N_7
REMARK    3  A    between atoms: N_7  and  O_8
REMARK    4  A    between atoms: N_7  and  O_9
REMARK                            x       y       z     vdW  Elec       q    Type
REMARK                         _______ _______ _______ _____ _____    ______ ____
ROOT
ATOM      1  C   UNL     1      -3.230   3.941   4.524  0.00  0.00    +0.000 C 
ATOM      2  C   UNL     1      -2.567   4.098   5.659  0.00  0.00    +0.000 A 
ATOM      3  C   UNL     1      -2.097   5.281   6.302  0.00  0.00    +0.000 A 
ATOM      4  C   UNL     1      -1.572   5.192   7.539  0.00  0.00    +0.000 A 
ATOM      5  C   UNL     1      -1.588   3.797   8.119  0.00  0.00    +0.000 A 
ATOM      6  C   UNL     1      -1.617   2.572   7.513  0.00  0.00    +0.000 A 
ATOM      7  C   UNL     1      -2.359   2.727   6.194  0.00  0.00    +0.000 A 
ATOM      8  N   UNL     1      -2.973   1.828   5.504  0.00  0.00    +0.000 NA
ATOM      9  C   UNL     1      -3.588   2.490   4.431  0.00  0.00    +0.000 C 
ATOM     10  O   UNL     1      -4.280   1.991   3.596  0.00  0.00    +0.000 OA
ATOM     11  C   UNL     1      -1.830   1.262   8.536  0.00  0.00    +0.000 C 
ATOM     12  C   UNL     1      -3.178   1.264   9.339  0.00  0.00    +0.000 C 
ATOM     13  C   UNL     1      -3.823   2.577   8.937  0.00  0.00    +0.000 C 
ATOM     14  C   UNL     1      -2.394   3.532   9.348  0.00  0.00    +0.000 C 
ENDROOT
BRANCH   1  16
ATOM     15  O   UNL     1      -2.572   5.083   2.787  0.00  0.00    +0.000 OA
ATOM     16  N   UNL     1      -3.459   4.884   3.618  0.00  0.00    +0.000 NA
ENDBRANCH   1  16
BRANCH   4  17
ATOM     17  N   UNL     1      -1.105   6.331   8.237  0.00  0.00    +0.000 N 
BRANCH  17  18
ATOM     18  O   UNL     1       0.244   6.686   8.358  0.00  0.00    +0.000 OA
ATOM     19  H   UNL     1       0.743   6.083   7.789  0.00  0.00    +0.000 HD
ENDBRANCH  17  18
BRANCH  17  20
ATOM     20  O   UNL     1      -1.925   7.080   9.059  0.00  0.00    +0.000 OA
ATOM     21  H   UNL     1      -1.271   7.704   9.441  0.00  0.00    +0.000 HD
ENDBRANCH  17  20
ENDBRANCH   4  17
TORSDOF 4
ENDMDL
MODEL 5
REMARK minimizedAffinity -5.4289608
REMARK minimizedRMSD -1
REMARK  Name = 
REMARK  4 active torsions:
REMARK  status: ('A' for Active; 'I' for Inactive)
REMARK    1  A    between atoms: N_2  and  C_3
REMARK    2  A    between atoms: C_6  and  N_7
REMARK    3  A    between atoms: N_7  and  O_8
REMARK    4  A    between atoms: N_7  and  O_9
REMARK                            x       y       z     vdW  Elec       q    Type
REMARK                         _______ _______ _______ _____ _____    ______ ____
ROOT
ATOM      1  C   UNL     1       3.326  -1.126   8.032  0.00  0.00    +0.000 C 
ATOM      2  C   UNL     1       4.037  -0.372   7.207  0.00  0.00    +0.000 A 
ATOM      3  C   UNL     1       3.916   1.008   6.875  0.00  0.00    +0.000 A 
ATOM      4  C   UNL     1       4.864   1.587   6.114  0.00  0.00    +0.000 A 
ATOM      5  C   UNL     1       5.998   0.666   5.730  0.00  0.00    +0.000 A 
ATOM      6  C   UNL     1       6.052  -0.696   5.624  0.00  0.00    +0.000 A 
ATOM      7  C   UNL     1       5.063  -1.277   6.623  0.00  0.00    +0.000 A 
ATOM      8  N   UNL     1       5.054  -2.448   7.162  0.00  0.00    +0.000 NA
ATOM      9  C   UNL     1       4.007  -2.457   8.095  0.00  0.00    +0.000 C 
ATOM     10  O   UNL     1       3.714  -3.361   8.819  0.00  0.00    +0.000 OA
ATOM     11  C   UNL     1       7.576  -1.343   5.363  0.00  0.00    +0.000 C 
ATOM     12  C   UNL     1       8.618  -1.058   6.501  0.00  0.00    +0.000 C 
ATOM     13  C   UNL     1       7.849  -0.176   7.466  0.00  0.00    +0.000 C 
ATOM     14  C   UNL     1       7.377   0.975   6.212  0.00  0.00    +0.000 C 
ENDROOT
BRANCH   1  16
ATOM     15  O   UNL     1       1.152  -0.961   7.979  0.00  0.00    +0.000 OA
ATOM     16  N   UNL     1       2.188  -0.777   8.620  0.00  0.00    +0.000 NA
ENDBRANCH   1  16
BRANCH   4  17
ATOM     17  N   UNL     1       4.809   2.958   5.764  0.00  0.00    +0.000 N 
BRANCH  17  18
ATOM     18  O   UNL     1       5.383   3.989   6.517  0.00  0.00    +0.000 OA
ATOM     19  H   UNL     1       5.897   3.568   7.220  0.00  0.00    +0.000 HD
ENDBRANCH  17  18
BRANCH  17  20
ATOM     20  O   UNL     1       3.986   3.431   4.760  0.00  0.00    +0.000 OA
ATOM     21  H   UNL     1       4.124   4.397   4.858  0.00  0.00    +0.000 HD
ENDBRANCH  17  20
ENDBRANCH   4  17
TORSDOF 4
ENDMDL
MODEL 6
REMARK minimizedAffinity -5.36655521
REMARK minimizedRMSD -1
REMARK  Name = 
REMARK  4 active torsions:
REMARK  status: ('A' for Active; 'I' for Inactive)
REMARK    1  A    between atoms: N_2  and  C_3
REMARK    2  A    between atoms: C_6  and  N_7
REMARK    3  A    between atoms: N_7  and  O_8
REMARK    4  A    between atoms: N_7  and  O_9
REMARK                            x       y       z     vdW  Elec       q    Type
REMARK                         _______ _______ _______ _____ _____    ______ ____
ROOT
ATOM      1  C   UNL     1       2.959   1.845   7.307  0.00  0.00    +0.000 C 
ATOM      2  C   UNL     1       2.038   2.722   7.673  0.00  0.00    +0.000 A 
ATOM      3  C   UNL     1       1.891   4.103   7.351  0.00  0.00    +0.000 A 
ATOM      4  C   UNL     1       0.774   4.752   7.731  0.00  0.00    +0.000 A 
ATOM      5  C   UNL     1      -0.234   3.883   8.446  0.00  0.00    +0.000 A 
ATOM      6  C   UNL     1      -0.079   2.724   9.154  0.00  0.00    +0.000 A 
ATOM      7  C   UNL     1       1.108   1.977   8.564  0.00  0.00    +0.000 A 
ATOM      8  N   UNL     1       1.374   0.717   8.612  0.00  0.00    +0.000 NA
ATOM      9  C   UNL     1       2.517   0.512   7.825  0.00  0.00    +0.000 C 
ATOM     10  O   UNL     1       3.040  -0.537   7.600  0.00  0.00    +0.000 OA
ATOM     11  C   UNL     1      -1.497   1.964   9.621  0.00  0.00    +0.000 C 
ATOM     12  C   UNL     1      -2.422   1.508   8.438  0.00  0.00    +0.000 C 
ATOM     13  C   UNL     1      -1.693   2.015   7.208  0.00  0.00    +0.000 C 
ATOM     14  C   UNL     1      -1.574   3.667   7.824  0.00  0.00    +0.000 C 
ENDROOT
BRANCH   1  16
ATOM     15  O   UNL     1       4.109   1.912   5.455  0.00  0.00    +0.000 OA
ATOM     16  N   UNL     1       4.090   2.123   6.668  0.00  0.00    +0.000 NA
ENDBRANCH   1  16
BRANCH   4  17
ATOM     17  N   UNL     1       0.562   6.118   7.426  0.00  0.00    +0.000 N 
BRANCH  17  18
ATOM     18  O   UNL     1       0.373   7.122   8.383  0.00  0.00    +0.000 OA
ATOM     19  H   UNL     1       0.531   6.716   9.247  0.00  0.00    +0.000 HD
ENDBRANCH  17  18
BRANCH  17  20
ATOM     20  O   UNL     1       0.296   6.554   6.142  0.00  0.00    +0.000 OA
ATOM     21  H   UNL     1       0.111   7.502   6.312  0.00  0.00    +0.000 HD
ENDBRANCH  17  20
ENDBRANCH   4  17
TORSDOF 4
ENDMDL
MODEL 7
REMARK minimizedAffinity -5.21117306
REMARK minimizedRMSD -1
REMARK  Name = 
REMARK  4 active torsions:
REMARK  status: ('A' for Active; 'I' for Inactive)
REMARK    1  A    between atoms: N_2  and  C_3
REMARK    2  A    between atoms: C_6  and  N_7
REMARK    3  A    between atoms: N_7  and  O_8
REMARK    4  A    between atoms: N_7  and  O_9
REMARK                            x       y       z     vdW  Elec       q    Type
REMARK                         _______ _______ _______ _____ _____    ______ ____
ROOT
ATOM      1  C   UNL     1      -3.538   2.889   4.983  0.00  0.00    +0.000 C 
ATOM      2  C   UNL     1      -2.796   3.289   6.004  0.00  0.00    +0.000 A 
ATOM      3  C   UNL     1      -1.494   2.882   6.420  0.00  0.00    +0.000 A 
ATOM      4  C   UNL     1      -0.884   3.552   7.416  0.00  0.00    +0.000 A 
ATOM      5  C   UNL     1      -1.677   4.719   7.955  0.00  0.00    +0.000 A 
ATOM      6  C   UNL     1      -3.020   4.970   7.952  0.00  0.00    +0.000 A 
ATOM      7  C   UNL     1      -3.612   4.308   6.716  0.00  0.00    +0.000 A 
ATOM      8  N   UNL     1      -4.700   4.597   6.089  0.00  0.00    +0.000 NA
ATOM      9  C   UNL     1      -4.745   3.774   4.954  0.00  0.00    +0.000 C 
ATOM     10  O   UNL     1      -5.588   3.782   4.109  0.00  0.00    +0.000 OA
ATOM     11  C   UNL     1      -3.475   6.493   8.481  0.00  0.00    +0.000 C 
ATOM     12  C   UNL     1      -2.916   7.683   7.625  0.00  0.00    +0.000 C 
ATOM     13  C   UNL     1      -2.041   6.993   6.595  0.00  0.00    +0.000 C 
ATOM     14  C   UNL     1      -1.124   6.099   7.812  0.00  0.00    +0.000 C 
ENDROOT
BRANCH   1  16
ATOM     15  O   UNL     1      -3.632   0.743   4.605  0.00  0.00    +0.000 OA
ATOM     16  N   UNL     1      -3.284   1.851   4.195  0.00  0.00    +0.000 NA
ENDBRANCH   1  16
BRANCH   4  17
ATOM     17  N   UNL     1       0.415   3.208   7.862  0.00  0.00    +0.000 N 
BRANCH  17  18
ATOM     18  O   UNL     1       0.981   3.651   9.063  0.00  0.00    +0.000 OA
ATOM     19  H   UNL     1       0.284   4.117   9.545  0.00  0.00    +0.000 HD
ENDBRANCH  17  18
BRANCH  17  20
ATOM     20  O   UNL     1       1.334   2.581   7.044  0.00  0.00    +0.000 OA
ATOM     21  H   UNL     1       2.124   2.588   7.626  0.00  0.00    +0.000 HD
ENDBRANCH  17  20
ENDBRANCH   4  17
TORSDOF 4
ENDMDL
MODEL 8
REMARK minimizedAffinity -5.20983648
REMARK minimizedRMSD -1
REMARK  Name = 
REMARK  4 active torsions:
REMARK  status: ('A' for Active; 'I' for Inactive)
REMARK    1  A    between atoms: N_2  and  C_3
REMARK    2  A    between atoms: C_6  and  N_7
REMARK    3  A    between atoms: N_7  and  O_8
REMARK    4  A    between atoms: N_7  and  O_9
REMARK                            x       y       z     vdW  Elec       q    Type
REMARK                         _______ _______ _______ _____ _____    ______ ____
ROOT
ATOM      1  C   UNL     1       5.034   0.710   6.048  0.00  0.00    +0.000 C 
ATOM      2  C   UNL     1       4.201   1.639   6.490  0.00  0.00    +0.000 A 
ATOM      3  C   UNL     1       3.073   1.536   7.356  0.00  0.00    +0.000 A 
ATOM      4  C   UNL     1       2.467   2.661   7.782  0.00  0.00    +0.000 A 
ATOM      5  C   UNL     1       3.116   3.936   7.297  0.00  0.00    +0.000 A 
ATOM      6  C   UNL     1       3.894   4.187   6.201  0.00  0.00    +0.000 A 
ATOM      7  C   UNL     1       4.660   2.913   5.876  0.00  0.00    +0.000 A 
ATOM      8  N   UNL     1       5.766   2.780   5.229  0.00  0.00    +0.000 NA
ATOM      9  C   UNL     1       6.114   1.423   5.295  0.00  0.00    +0.000 C 
ATOM     10  O   UNL     1       7.100   0.924   4.842  0.00  0.00    +0.000 OA
ATOM     11  C   UNL     1       4.584   5.712   6.136  0.00  0.00    +0.000 C 
ATOM     12  C   UNL     1       5.561   6.045   7.318  0.00  0.00    +0.000 C 
ATOM     13  C   UNL     1       5.473   4.815   8.202  0.00  0.00    +0.000 C 
ATOM     14  C   UNL     1       3.710   4.873   8.296  0.00  0.00    +0.000 C 
ENDROOT
BRANCH   1  16
ATOM     15  O   UNL     1       4.859  -1.272   5.154  0.00  0.00    +0.000 OA
ATOM     16  N   UNL     1       4.884  -0.602   6.188  0.00  0.00    +0.000 NA
ENDBRANCH   1  16
BRANCH   4  17
ATOM     17  N   UNL     1       1.355   2.626   8.657  0.00  0.00    +0.000 N 
BRANCH  17  18
ATOM     18  O   UNL     1       0.504   3.711   8.898  0.00  0.00    +0.000 OA
ATOM     19  H   UNL     1       0.761   4.409   8.279  0.00  0.00    +0.000 HD
ENDBRANCH  17  18
BRANCH  17  20
ATOM     20  O   UNL     1       1.136   1.578   9.531  0.00  0.00    +0.000 OA
ATOM     21  H   UNL     1       0.365   1.922  10.030  0.00  0.00    +0.000 HD
ENDBRANCH  17  20
ENDBRANCH   4  17
TORSDOF 4
ENDMDL
MODEL 9
REMARK minimizedAffinity -5.20215416
REMARK minimizedRMSD -1
REMARK  Name = 
REMARK  4 active torsions:
REMARK  status: ('A' for Active; 'I' for Inactive)
REMARK    1  A    between atoms: N_2  and  C_3
REMARK    2  A    between atoms: C_6  and  N_7
REMARK    3  A    between atoms: N_7  and  O_8
REMARK    4  A    between atoms: N_7  and  O_9
REMARK                            x       y       z     vdW  Elec       q    Type
REMARK                         _______ _______ _______ _____ _____    ______ ____
ROOT
ATOM      1  C   UNL     1       0.908   2.891   7.661  0.00  0.00    +0.000 C 
ATOM      2  C   UNL     1      -0.126   3.405   7.012  0.00  0.00    +0.000 A 
ATOM      3  C   UNL     1      -1.133   2.774   6.224  0.00  0.00    +0.000 A 
ATOM      4  C   UNL     1      -2.177   3.503   5.786  0.00  0.00    +0.000 A 
ATOM      5  C   UNL     1      -2.161   4.943   6.240  0.00  0.00    +0.000 A 
ATOM      6  C   UNL     1      -1.128   5.753   6.623  0.00  0.00    +0.000 A 
ATOM      7  C   UNL     1      -0.056   4.872   7.246  0.00  0.00    +0.000 A 
ATOM      8  N   UNL     1       0.868   5.195   8.085  0.00  0.00    +0.000 NA
ATOM      9  C   UNL     1       1.528   4.009   8.439  0.00  0.00    +0.000 C 
ATOM     10  O   UNL     1       2.419   3.906   9.226  0.00  0.00    +0.000 OA
ATOM     11  C   UNL     1      -1.568   7.242   7.252  0.00  0.00    +0.000 C 
ATOM     12  C   UNL     1      -2.436   7.176   8.558  0.00  0.00    +0.000 C 
ATOM     13  C   UNL     1      -2.648   5.688   8.762  0.00  0.00    +0.000 C 
ATOM     14  C   UNL     1      -3.259   5.438   7.123  0.00  0.00    +0.000 C 
ENDROOT
BRANCH   1  16
ATOM     15  O   UNL     1       2.269   1.431   6.782  0.00  0.00    +0.000 OA
ATOM     16  N   UNL     1       1.343   1.640   7.567  0.00  0.00    +0.000 NA
ENDBRANCH   1  16
BRANCH   4  17
ATOM     17  N   UNL     1      -3.217   2.931   5.015  0.00  0.00    +0.000 N 
BRANCH  17  18
ATOM     18  O   UNL     1      -3.152   1.668   4.413  0.00  0.00    +0.000 OA
ATOM     19  H   UNL     1      -2.336   1.252   4.725  0.00  0.00    +0.000 HD
ENDBRANCH  17  18
BRANCH  17  20
ATOM     20  O   UNL     1      -4.311   3.662   4.594  0.00  0.00    +0.000 OA
ATOM     21  H   UNL     1      -4.757   3.001   4.023  0.00  0.00    +0.000 HD
ENDBRANCH  17  20
ENDBRANCH   4  17
TORSDOF 4
ENDMDL
