REMARK  Name = 
REMARK  0 active torsions:
REMARK  status: ('A' for Active; 'I' for Inactive)
REMARK                            x       y       z     vdW  Elec       q    Type
REMARK                         _______ _______ _______ _____ _____    ______ ____
ROOT
ATOM      1  O   UNL     1       1.166  -0.682  -0.155  0.00  0.00    +0.000 OA
ATOM      2  C   UNL     1       2.384  -0.480  -0.206  0.00  0.00    +0.000 C 
ATOM      3  O   UNL     1       2.849   0.153  -1.131  0.00  0.00    +0.000 OA
ATOM      4  O   UNL     1       2.687  -0.188   0.955  0.00  0.00    +0.000 OA
ENDROOT
TORSDOF 0
REMARK  Name = 
REMARK  0 active torsions:
REMARK  status: ('A' for Active; 'I' for Inactive)
REMARK                            x       y       z     vdW  Elec       q    Type
REMARK                         _______ _______ _______ _____ _____    ______ ____
ROOT
ATOM      1 MG   UNL     1       1.309   0.993   0.608  0.00  0.00    +0.000 Mg
ENDROOT
TORSDOF 0
