REMARK  Name = 
REMARK  6 active torsions:
REMARK  status: ('A' for Active; 'I' for Inactive)
REMARK    1  A    between atoms: C_6  and  C_7
REMARK    2  A    between atoms: C_7  and  N_8
REMARK    3  A    between atoms: N_8  and  C_9
REMARK    4  A    between atoms: C_12  and  S_15
REMARK    5  A    between atoms: S_15  and  N_18
REMARK    6  A    between atoms: N_18  and  C_19
REMARK                            x       y       z     vdW  Elec       q    Type
REMARK                         _______ _______ _______ _____ _____    ______ ____
ROOT
ATOM      1  C   UNL     1       3.252  -1.990  -1.340  0.00  0.00    +0.000 A 
ATOM      2  C   UNL     1       2.839  -2.862  -0.347  0.00  0.00    +0.000 A 
ATOM      3  C   UNL     1       3.548  -4.014  -0.080  0.00  0.00    +0.000 A 
ATOM      4  C   UNL     1       4.633  -4.398  -0.826  0.00  0.00    +0.000 A 
ATOM      5  C   UNL     1       5.190  -3.447  -1.686  0.00  0.00    +0.000 A 
ATOM      6  C   UNL     1       4.458  -2.275  -1.992  0.00  0.00    +0.000 A 
ENDROOT
BRANCH   4   7
ATOM      7  S   UNL     1       5.213  -6.079  -0.755  0.00  0.00    +0.000 S 
ATOM      8  O   UNL     1       5.404  -6.513  -2.128  0.00  0.00    +0.000 OA
ATOM      9  O   UNL     1       6.356  -6.057   0.137  0.00  0.00    +0.000 OA
BRANCH   7  10
ATOM     10  N   UNL     1       4.094  -7.207  -0.106  0.00  0.00    +0.000 N 
ATOM     11  H   UNL     1       4.612  -7.969   0.325  0.00  0.00    +0.000 HD
BRANCH  10  12
ATOM     12  C   UNL     1       2.879  -6.879   0.562  0.00  0.00    +0.000 A 
ATOM     13  C   UNL     1       2.726  -7.019   1.939  0.00  0.00    +0.000 A 
ATOM     14  C   UNL     1       1.671  -6.344   2.573  0.00  0.00    +0.000 A 
ATOM     15  C   UNL     1       0.714  -5.690   1.807  0.00  0.00    +0.000 A 
ATOM     16  C   UNL     1       0.869  -5.726   0.432  0.00  0.00    +0.000 A 
ATOM     17  N   UNL     1       1.932  -6.297  -0.201  0.00  0.00    +0.000 NA
ENDBRANCH  10  12
ENDBRANCH   7  10
ENDBRANCH   4   7
BRANCH   1  18
ATOM     18  N   UNL     1       2.489  -0.848  -1.591  0.00  0.00    +0.000 N 
ATOM     19  H   UNL     1       2.741  -0.322  -2.415  0.00  0.00    +0.000 HD
BRANCH  18  20
ATOM     20  C   UNL     1       2.191  -0.030  -0.429  0.00  0.00    +0.000 C 
BRANCH  20  26
ATOM     21  O   UNL     1       4.501   1.485   0.969  0.00  0.00    +0.000 OA
ATOM     22  C   UNL     1       3.332   1.563   0.731  0.00  0.00    +0.000 C 
ATOM     23  N   UNL     1       2.185   2.048   1.411  0.00  0.00    +0.000 NA
ATOM     24  C   UNL     1       1.523   2.636   0.447  0.00  0.00    +0.000 A 
ATOM     25  C   UNL     1       2.387   2.636  -0.761  0.00  0.00    +0.000 A 
ATOM     26  C   UNL     1       2.843   1.359  -0.635  0.00  0.00    +0.000 C 
ATOM     27  C   UNL     1       3.112   3.931  -0.515  0.00  0.00    +0.000 A 
ATOM     28  S   UNL     1       4.788   4.240  -0.237  0.00  0.00    +0.000 S 
ATOM     29  C   UNL     1       4.425   5.872   0.184  0.00  0.00    +0.000 A 
ATOM     30  N   UNL     1       3.149   6.179   0.299  0.00  0.00    +0.000 NA
ATOM     31  C   UNL     1       2.433   5.052  -0.004  0.00  0.00    +0.000 A 
ATOM     32  C   UNL     1       1.020   4.939   0.230  0.00  0.00    +0.000 A 
ATOM     33  C   UNL     1       0.472   3.709   0.388  0.00  0.00    +0.000 A 
ENDBRANCH  20  26
ENDBRANCH  18  20
ENDBRANCH   1  18
TORSDOF 6
