
     RDKit          3D

 46 50  0  0  0  0  0  0  0  0999 V2000
    2.3812   -2.6548   -3.3366 O   0  0  0  0  0  0  0  0  0  0  0  0
    3.2683   -2.0454   -2.6836 C   0  0  0  0  0  0  0  0  0  0  0  0
    4.5813   -1.7910   -3.1724 N   0  0  0  0  0  0  0  0  0  0  0  0
    5.1388   -1.1398   -2.2009 C   0  0  0  0  0  0  0  0  0  0  0  0
    4.3009   -0.9409   -1.1050 C   0  0  0  0  0  0  0  0  0  0  0  0
    3.1174   -1.4962   -1.3441 C   0  0  0  0  0  0  0  0  0  0  0  0
    1.8822   -1.4945   -0.4909 C   0  0  0  0  0  0  0  0  0  0  0  0
    1.2715   -0.1640   -0.4618 N   0  0  0  0  0  0  0  0  0  0  0  0
    0.1163    0.1560    0.3357 C   0  0  0  0  0  0  0  0  0  0  0  0
   -0.3682    1.4736    0.3447 C   0  0  0  0  0  0  0  0  0  0  0  0
   -1.4886    1.8137    1.1074 C   0  0  0  0  0  0  0  0  0  0  0  0
   -2.1401    0.8423    1.8755 C   0  0  0  0  0  0  0  0  0  0  0  0
   -1.6654   -0.4756    1.8711 C   0  0  0  0  0  0  0  0  0  0  0  0
   -0.5455   -0.8185    1.1079 C   0  0  0  0  0  0  0  0  0  0  0  0
   -3.5699    1.2816    2.8042 S   0  0  0  0  0  6  0  0  0  0  0  0
   -3.2330    2.4372    3.7039 O   0  0  0  0  0  0  0  0  0  0  0  0
   -4.0321    0.1297    3.6523 O   0  0  0  0  0  0  0  0  0  0  0  0
   -4.8419    1.7439    1.7229 N   0  0  0  0  0  0  0  0  0  0  0  0
   -5.3291    0.8595    0.7062 C   0  0  0  0  0  0  0  0  0  0  0  0
   -6.3227    1.2900   -0.1837 C   0  0  0  0  0  0  0  0  0  0  0  0
   -6.7821    0.4181   -1.1731 C   0  0  0  0  0  0  0  0  0  0  0  0
   -6.2506   -0.8693   -1.2663 C   0  0  0  0  0  0  0  0  0  0  0  0
   -5.2633   -1.2670   -0.3625 C   0  0  0  0  0  0  0  0  0  0  0  0
   -4.8292   -0.4036    0.5938 N   0  0  0  0  0  0  0  0  0  0  0  0
    4.7776   -0.2315   -0.0009 C   0  0  0  0  0  0  0  0  0  0  0  0
    4.0354    0.1880    1.4468 S   0  0  0  0  0  0  0  0  0  0  0  0
    5.4145    0.9818    2.0232 C   0  0  0  0  0  0  0  0  0  0  0  0
    6.4341    0.9350    1.1312 N   0  0  0  0  0  0  0  0  0  0  0  0
    6.0793    0.2614    0.0067 C   0  0  0  0  0  0  0  0  0  0  0  0
    6.9326    0.0575   -1.0919 C   0  0  0  0  0  0  0  0  0  0  0  0
    6.4558   -0.6522   -2.2141 C   0  0  0  0  0  0  0  0  0  0  0  0
    2.1513   -1.8118    0.5383 H   0  0  0  0  0  0  0  0  0  0  0  0
    1.1529   -2.2250   -0.9008 H   0  0  0  0  0  0  0  0  0  0  0  0
    1.7008    0.5998   -1.0341 H   0  0  0  0  0  0  0  0  0  0  0  0
    0.1228    2.2395   -0.2425 H   0  0  0  0  0  0  0  0  0  0  0  0
   -1.8514    2.8337    1.0961 H   0  0  0  0  0  0  0  0  0  0  0  0
   -2.1639   -1.2416    2.4507 H   0  0  0  0  0  0  0  0  0  0  0  0
   -0.2072   -1.8454    1.1232 H   0  0  0  0  0  0  0  0  0  0  0  0
   -5.2377    2.7067    1.8095 H   0  0  0  0  0  0  0  0  0  0  0  0
   -6.7336    2.2892   -0.1122 H   0  0  0  0  0  0  0  0  0  0  0  0
   -7.5481    0.7400   -1.8666 H   0  0  0  0  0  0  0  0  0  0  0  0
   -6.5999   -1.5515   -2.0303 H   0  0  0  0  0  0  0  0  0  0  0  0
   -4.8414   -2.2615   -0.4207 H   0  0  0  0  0  0  0  0  0  0  0  0
    5.4894    1.4721    2.9840 H   0  0  0  0  0  0  0  0  0  0  0  0
    7.9438    0.4438   -1.0812 H   0  0  0  0  0  0  0  0  0  0  0  0
    7.0965   -0.8132   -3.0718 H   0  0  0  0  0  0  0  0  0  0  0  0
  1  2  2  0
  2  3  1  0
  3  4  2  0
  4  5  1  0
  5  6  2  0
  6  7  1  0
  7  8  1  0
  8  9  1  0
  9 10  2  0
 10 11  1  0
 11 12  2  0
 12 13  1  0
 13 14  2  0
 12 15  1  0
 15 16  2  0
 15 17  2  0
 15 18  1  0
 18 19  1  0
 19 20  2  0
 20 21  1  0
 21 22  2  0
 22 23  1  0
 23 24  2  0
  5 25  1  0
 25 26  1  0
 26 27  1  0
 27 28  2  0
 28 29  1  0
 29 30  1  0
 30 31  2  0
  6  2  1  0
 14  9  1  0
 24 19  1  0
 29 25  2  0
 31  4  1  0
  7 32  1  0
  7 33  1  0
  8 34  1  0
 10 35  1  0
 11 36  1  0
 13 37  1  0
 14 38  1  0
 18 39  1  0
 20 40  1  0
 21 41  1  0
 22 42  1  0
 23 43  1  0
 27 44  1  0
 30 45  1  0
 31 46  1  0
M  END
$$$$
