
     RDKit          3D

 30 30  0  0  0  0  0  0  0  0999 V2000
    5.3051   -0.1589    0.0223 C   0  0  0  0  0  0  0  0  0  0  0  0
    3.8236   -0.5013   -0.0166 C   0  0  0  0  0  0  0  0  0  0  0  0
    3.0332    0.7187    0.0811 N   0  0  0  0  0  2  0  0  0  0  0  0
    1.6043    0.7202    0.0716 C   0  0  0  0  0  0  0  0  0  0  0  0
    0.9354    1.8962    0.1663 N   0  0  0  0  0  0  0  0  0  0  0  0
   -0.4229    1.9124    0.1585 C   0  0  0  0  0  0  0  0  0  0  0  0
   -1.1333    3.1482    0.2580 N   0  0  0  0  0  0  0  0  0  0  0  0
   -0.4688    4.3265    0.3620 N   0  0  0  0  0  4  0  0  0  0  0  0
    0.0794    5.2995    0.4478 N   0  0  0  0  0  0  0  0  0  0  0  0
   -1.1089    0.7460    0.0555 N   0  0  0  0  0  0  0  0  0  0  0  0
   -0.4471   -0.4365   -0.0399 C   0  0  0  0  0  0  0  0  0  0  0  0
    0.9108   -0.4438   -0.0313 N   0  0  0  0  0  0  0  0  0  0  0  0
   -1.1595   -1.6793   -0.1495 N   0  0  0  0  0  0  0  0  0  0  0  0
   -2.6214   -1.8216   -0.1714 C   0  0  0  0  0  0  0  0  0  0  0  0
   -3.2324   -1.1230   -1.3907 C   0  0  0  0  0  0  0  0  0  0  0  0
   -3.2495   -1.3365    1.1395 C   0  0  0  0  0  0  0  0  0  0  0  0
    5.5535    0.3534    0.9761 H   0  0  0  0  0  0  0  0  0  0  0  0
    5.5656    0.5057   -0.8287 H   0  0  0  0  0  0  0  0  0  0  0  0
    5.9058   -1.0898   -0.0522 H   0  0  0  0  0  0  0  0  0  0  0  0
    3.5782   -1.1735    0.8337 H   0  0  0  0  0  0  0  0  0  0  0  0
    3.5903   -1.0213   -0.9707 H   0  0  0  0  0  0  0  0  0  0  0  0
   -2.1775    3.1497    0.2511 H   0  0  0  0  0  0  0  0  0  0  0  0
   -0.5917   -2.5542   -0.2195 H   0  0  0  0  0  0  0  0  0  0  0  0
   -2.8576   -2.9053   -0.2644 H   0  0  0  0  0  0  0  0  0  0  0  0
   -3.1458   -0.0199   -1.3149 H   0  0  0  0  0  0  0  0  0  0  0  0
   -4.3095   -1.3825   -1.4730 H   0  0  0  0  0  0  0  0  0  0  0  0
   -2.7200   -1.4616   -2.3161 H   0  0  0  0  0  0  0  0  0  0  0  0
   -3.1630   -0.2365    1.2508 H   0  0  0  0  0  0  0  0  0  0  0  0
   -4.3272   -1.6049    1.1627 H   0  0  0  0  0  0  0  0  0  0  0  0
   -2.7490   -1.8260    2.0018 H   0  0  0  0  0  0  0  0  0  0  0  0
  1  2  1  0
  2  3  1  0
  3  4  1  0
  4  5  2  0
  5  6  1  0
  6  7  1  0
  7  8  1  0
  8  9  3  0
  6 10  2  0
 10 11  1  0
 11 12  2  0
 11 13  1  0
 13 14  1  0
 14 15  1  0
 14 16  1  0
 12  4  1  0
  1 17  1  0
  1 18  1  0
  1 19  1  0
  2 20  1  0
  2 21  1  0
  7 22  1  0
 13 23  1  0
 14 24  1  0
 15 25  1  0
 15 26  1  0
 15 27  1  0
 16 28  1  0
 16 29  1  0
 16 30  1  0
M  CHG  2   3  -1   8   1
M  END
$$$$
