REMARK  Name = 
REMARK  7 active torsions:
REMARK  status: ('A' for Active; 'I' for Inactive)
REMARK    1  A    between atoms: C_1  and  C_2
REMARK    2  A    between atoms: C_2  and  N_3
REMARK    3  A    between atoms: N_3  and  C_4
REMARK    4  A    between atoms: N_7  and  N_8
REMARK    5  A    between atoms: N_13  and  C_14
REMARK    6  A    between atoms: C_14  and  C_15
REMARK    7  A    between atoms: C_14  and  C_16
REMARK                            x       y       z     vdW  Elec       q    Type
REMARK                         _______ _______ _______ _____ _____    ______ ____
ROOT
ATOM      1  C   UNL     1       2.529  -1.625   2.122  0.00  0.00    +0.000 A 
ATOM      2  N   UNL     1       3.303  -0.652   1.644  0.00  0.00    +0.000 NA
ATOM      3  C   UNL     1       4.587  -0.718   1.956  0.00  0.00    +0.000 A 
ATOM      4  N   UNL     1       5.413   0.263   1.445  0.00  0.00    +0.000 N 
ATOM      5  N   UNL     1       5.123  -1.659   2.712  0.00  0.00    +0.000 NA
ATOM      6  C   UNL     1       4.286  -2.588   3.157  0.00  0.00    +0.000 A 
ATOM      7  N   UNL     1       2.980  -2.607   2.905  0.00  0.00    +0.000 NA
ATOM      8  N   UNL     1       4.803  -3.609   3.922  0.00  0.00    +0.000 N 
ATOM      9  H   UNL     1       4.959   0.913   0.833  0.00  0.00    +0.000 HD
ATOM     10  H   UNL     1       4.123  -4.304   4.186  0.00  0.00    +0.000 HD
ENDROOT
BRANCH   8  11
ATOM     11  C   UNL     1       6.211  -3.692   4.242  0.00  0.00    +0.000 C 
ATOM     12  C   UNL     1       6.395  -3.686   5.756  0.00  0.00    +0.000 C 
ATOM     13  C   UNL     1       6.818  -4.962   3.654  0.00  0.00    +0.000 C 
ENDBRANCH   8  11
BRANCH   4  14
ATOM     14  N   UNL     1       6.755   0.256   1.724  0.00  0.00    +0.000 NA
ATOM     15  N   UNL     1       7.854   0.323   1.910  0.00  0.00    +0.000 NA
ENDBRANCH   4  14
BRANCH   1  16
ATOM     16  N   UNL     1       1.196  -1.569   1.935  0.00  0.00    +0.000 NA
BRANCH  16  18
ATOM     17  C   UNL     1       1.045   0.079   0.027  0.00  0.00    +0.000 C 
ATOM     18  C   UNL     1       0.685  -1.296   0.581  0.00  0.00    +0.000 C 
ENDBRANCH  16  18
ENDBRANCH   1  16
TORSDOF 4
