REMARK  Name = 
REMARK  7 active torsions:
REMARK  status: ('A' for Active; 'I' for Inactive)
REMARK    1  A    between atoms: N_2  and  N_3
REMARK    2  A    between atoms: C_6  and  N_7
REMARK    3  A    between atoms: N_7  and  C_8
REMARK    4  A    between atoms: C_8  and  C_9
REMARK    5  A    between atoms: C_8  and  C_10
REMARK    6  A    between atoms: C_12  and  S_14
REMARK    7  A    between atoms: S_14  and  C_15
REMARK                            x       y       z     vdW  Elec       q    Type
REMARK                         _______ _______ _______ _____ _____    ______ ____
ROOT
ATOM      1  N   UNL     1       3.685  -0.160  -0.090  0.00  0.00    +0.000 N 
ATOM      2  C   UNL     1       4.415  -0.693  -1.132  0.00  0.00    +0.000 A 
ATOM      3  N   UNL     1       3.967  -0.492  -2.356  0.00  0.00    +0.000 NA
ATOM      4  C   UNL     1       4.719  -0.915  -3.362  0.00  0.00    +0.000 A 
ATOM      5  N   UNL     1       5.844  -1.590  -3.183  0.00  0.00    +0.000 NA
ATOM      6  C   UNL     1       6.191  -1.797  -1.910  0.00  0.00    +0.000 A 
ATOM      7  N   UNL     1       5.546  -1.330  -0.834  0.00  0.00    +0.000 NA
ATOM      8  H   UNL     1       4.211   0.182   0.686  0.00  0.00    +0.000 HD
ENDROOT
BRANCH   1  10
ATOM      9  N   UNL     1       1.202  -0.015  -0.072  0.00  0.00    +0.000 NA
ATOM     10  N   UNL     1       2.313  -0.075  -0.166  0.00  0.00    +0.000 NA
ENDBRANCH   1  10
BRANCH   6  11
ATOM     11  S   UNL     1       7.663  -2.801  -1.696  0.00  0.00    +0.000 S 
ATOM     12  C   UNL     1       7.768  -3.017   0.097  0.00  0.00    +0.000 C 
ENDBRANCH   6  11
BRANCH   4  13
ATOM     13  N   UNL     1       4.360  -0.670  -4.636  0.00  0.00    +0.000 NA
BRANCH  13  14
ATOM     14  C   UNL     1       3.095   0.054  -4.906  0.00  0.00    +0.000 C 
ATOM     15  C   UNL     1       1.857  -0.705  -4.412  0.00  0.00    +0.000 C 
ATOM     16  C   UNL     1       3.111   1.499  -4.394  0.00  0.00    +0.000 C 
ENDBRANCH  13  14
ENDBRANCH   4  13
TORSDOF 4
