REMARK  Name = 
REMARK  4 active torsions:
REMARK  status: ('A' for Active; 'I' for Inactive)
REMARK    1  A    between atoms: N_2  and  C_3
REMARK    2  A    between atoms: C_6  and  N_7
REMARK    3  A    between atoms: N_7  and  O_8
REMARK    4  A    between atoms: N_7  and  O_9
REMARK                            x       y       z     vdW  Elec       q    Type
REMARK                         _______ _______ _______ _____ _____    ______ ____
ROOT
ATOM      1  C   UNL     1       2.854  -0.448  -1.039  0.00  0.00    +0.000 C 
ATOM      2  C   UNL     1       4.014  -1.086  -1.022  0.00  0.00    +0.000 A 
ATOM      3  C   UNL     1       4.685  -1.763   0.038  0.00  0.00    +0.000 A 
ATOM      4  C   UNL     1       5.798  -2.470  -0.234  0.00  0.00    +0.000 A 
ATOM      5  C   UNL     1       6.181  -2.484  -1.695  0.00  0.00    +0.000 A 
ATOM      6  C   UNL     1       5.903  -1.606  -2.705  0.00  0.00    +0.000 A 
ATOM      7  C   UNL     1       4.559  -0.961  -2.400  0.00  0.00    +0.000 A 
ATOM      8  N   UNL     1       3.724  -0.412  -3.214  0.00  0.00    +0.000 NA
ATOM      9  C   UNL     1       2.590  -0.070  -2.463  0.00  0.00    +0.000 C 
ATOM     10  O   UNL     1       1.588   0.425  -2.883  0.00  0.00    +0.000 OA
ATOM     11  C   UNL     1       6.353  -2.101  -4.241  0.00  0.00    +0.000 C 
ATOM     12  C   UNL     1       5.654  -3.413  -4.743  0.00  0.00    +0.000 C 
ATOM     13  C   UNL     1       4.817  -3.841  -3.552  0.00  0.00    +0.000 C 
ATOM     14  C   UNL     1       6.182  -3.783  -2.432  0.00  0.00    +0.000 C 
ENDROOT
BRANCH   1  16
ATOM     15  O   UNL     1       0.896  -0.118  -0.137  0.00  0.00    +0.000 OA
ATOM     16  N   UNL     1       2.117  -0.143   0.023  0.00  0.00    +0.000 NA
ENDBRANCH   1  16
BRANCH   4  17
ATOM     17  N   UNL     1       6.499  -3.178   0.772  0.00  0.00    +0.000 N 
BRANCH  17  18
ATOM     18  O   UNL     1       6.228  -3.080   2.142  0.00  0.00    +0.000 OA
ATOM     19  H   UNL     1       5.425  -2.547   2.230  0.00  0.00    +0.000 HD
ENDBRANCH  17  18
BRANCH  17  20
ATOM     20  O   UNL     1       7.670  -3.863   0.512  0.00  0.00    +0.000 OA
ATOM     21  H   UNL     1       7.921  -4.136   1.420  0.00  0.00    +0.000 HD
ENDBRANCH  17  20
ENDBRANCH   4  17
TORSDOF 4
