
     RDKit          3D

 30 32  0  0  0  0  0  0  0  0999 V2000
    5.5498   -0.6894   -0.8543 O   0  0  0  0  0  0  0  0  0  0  0  0
    4.4811   -0.0686   -0.6839 N   0  0  0  0  0  0  0  0  0  0  0  0
    3.2408   -0.7647   -0.5568 C   0  0  0  0  0  0  0  0  0  0  0  0
    2.0465   -0.2296   -0.3771 C   0  0  0  0  0  0  0  0  0  0  0  0
    1.6989    1.1106   -0.2669 C   0  0  0  0  0  0  0  0  0  0  0  0
    0.3453    1.4507   -0.0730 C   0  0  0  0  0  0  0  0  0  0  0  0
    0.0046    2.8423    0.0829 N   0  0  0  0  0  0  0  0  0  0  0  0
   -0.9498    3.2339    0.9619 O   0  0  0  0  0  0  0  0  0  0  0  0
    0.6789    3.7903   -0.6137 O   0  0  0  0  0  0  0  0  0  0  0  0
   -0.6506    0.4212   -0.0377 C   0  0  0  0  0  0  0  0  0  0  0  0
   -0.2569   -0.9489   -0.1217 C   0  0  0  0  0  0  0  0  0  0  0  0
    1.1013   -1.2389   -0.3053 C   0  0  0  0  0  0  0  0  0  0  0  0
    1.6038   -2.4318   -0.4340 N   0  0  0  0  0  0  0  0  0  0  0  0
    2.9975   -2.1929   -0.5999 C   0  0  0  0  0  0  0  0  0  0  0  0
    3.8591   -3.0968   -0.7582 O   0  0  0  0  0  0  0  0  0  0  0  0
   -1.2646   -2.0791   -0.1334 C   0  0  0  0  0  0  0  0  0  0  0  0
   -2.6385   -1.6558    0.3854 C   0  0  0  0  0  0  0  0  0  0  0  0
   -3.0668   -0.3488   -0.2728 C   0  0  0  0  0  0  0  0  0  0  0  0
   -2.1160    0.7812    0.1281 C   0  0  0  0  0  0  0  0  0  0  0  0
    2.4648    1.8749   -0.3086 H   0  0  0  0  0  0  0  0  0  0  0  0
   -0.4675    3.3718    1.8168 H   0  0  0  0  0  0  0  0  0  0  0  0
    1.4190    4.0707   -0.0165 H   0  0  0  0  0  0  0  0  0  0  0  0
   -0.8967   -2.9210    0.4926 H   0  0  0  0  0  0  0  0  0  0  0  0
   -1.3679   -2.4480   -1.1772 H   0  0  0  0  0  0  0  0  0  0  0  0
   -2.6032   -1.5299    1.4903 H   0  0  0  0  0  0  0  0  0  0  0  0
   -3.3804   -2.4498    0.1525 H   0  0  0  0  0  0  0  0  0  0  0  0
   -4.0989   -0.0925    0.0502 H   0  0  0  0  0  0  0  0  0  0  0  0
   -3.0712   -0.4652   -1.3794 H   0  0  0  0  0  0  0  0  0  0  0  0
   -2.3624    1.6656   -0.4982 H   0  0  0  0  0  0  0  0  0  0  0  0
   -2.2999    1.0387    1.1937 H   0  0  0  0  0  0  0  0  0  0  0  0
  1  2  2  0
  2  3  1  0
  3  4  2  0
  4  5  1  0
  5  6  2  0
  6  7  1  0
  7  8  1  0
  7  9  1  0
  6 10  1  0
 10 11  2  0
 11 12  1  0
 12 13  2  0
 13 14  1  0
 14 15  2  0
 11 16  1  0
 16 17  1  0
 17 18  1  0
 18 19  1  0
 14  3  1  0
 12  4  1  0
 19 10  1  0
  5 20  1  0
  8 21  1  0
  9 22  1  0
 16 23  1  0
 16 24  1  0
 17 25  1  0
 17 26  1  0
 18 27  1  0
 18 28  1  0
 19 29  1  0
 19 30  1  0
M  END
$$$$
