REMARK  Name = 
REMARK  2 active torsions:
REMARK  status: ('A' for Active; 'I' for Inactive)
REMARK    1  A    between atoms: O_1  and  C_2
REMARK    2  A    between atoms: C_5  and  O_8
REMARK                            x       y       z     vdW  Elec       q    Type
REMARK                         _______ _______ _______ _____ _____    ______ ____
ROOT
ATOM      1  C   UNL     1      -1.555  -0.241   1.358  0.00  0.00    +0.000 A 
ATOM      2  C   UNL     1      -0.647  -0.594   0.305  0.00  0.00    +0.000 A 
ATOM      3  C   UNL     1       0.942  -0.436  -1.011  0.00  0.00    +0.000 A 
ATOM      4  C   UNL     1       2.163   0.718  -0.320  0.00  0.00    +0.000 A 
ATOM      5  C   UNL     1       1.289   1.448   1.212  0.00  0.00    +0.000 A 
ATOM      6  C   UNL     1      -0.527   0.979   1.607  0.00  0.00    +0.000 A 
ENDROOT
BRANCH   1   7
ATOM      7  O   UNL     1      -2.725  -0.865   0.359  0.00  0.00    +0.000 OA
ATOM      8  H   UNL     1      -3.631  -1.267   0.420  0.00  0.00    +0.000 HD
ENDBRANCH   1   7
BRANCH   4   9
ATOM      9  O   UNL     1       3.374   0.049  -0.573  0.00  0.00    +0.000 OA
ATOM     10  H   UNL     1       3.400  -0.754  -0.002  0.00  0.00    +0.000 HD
ENDBRANCH   4   9
TORSDOF 2
REMARK  Name = 
REMARK  2 active torsions:
REMARK  status: ('A' for Active; 'I' for Inactive)
REMARK    1  A    between atoms: O_1  and  C_2
REMARK    2  A    between atoms: C_5  and  O_8
REMARK                            x       y       z     vdW  Elec       q    Type
REMARK                         _______ _______ _______ _____ _____    ______ ____
ROOT
ATOM      1  O   UNL     1      -2.639   0.806  -0.840  0.00  0.00    +0.000 OA
ATOM      2  C   UNL     1      -1.599   0.237  -1.332  0.00  0.00    +0.000 C 
ATOM      3  C   UNL     1      -0.734   1.527  -1.179  0.00  0.00    +0.000 C 
ATOM      4  C   UNL     1       0.263   1.168  -0.385  0.00  0.00    +0.000 C 
ATOM      5  C   UNL     1       1.093  -0.549   0.758  0.00  0.00    +0.000 C 
ATOM      6  O   UNL     1       2.138  -0.669   1.429  0.00  0.00    +0.000 OA
ATOM      7  C   UNL     1       0.369  -2.179  -0.258  0.00  0.00    +0.000 C 
ATOM      8  C   UNL     1      -0.901  -1.670  -1.283  0.00  0.00    +0.000 C 
ENDROOT
TORSDOF 0
