REMARK  Name = 
REMARK  0 active torsions:
REMARK  status: ('A' for Active; 'I' for Inactive)
REMARK                            x       y       z     vdW  Elec       q    Type
REMARK                         _______ _______ _______ _____ _____    ______ ____
ROOT
ATOM      1  O   UNL     1       1.022  -0.069  -0.006  0.00  0.00    +0.000 OA
ATOM      2  O   UNL     1       2.304  -0.069  -0.006  0.00  0.00    +0.000 OA
ENDROOT
TORSDOF 0
