MODEL 1
REMARK minimizedAffinity -0.000302931032
REMARK minimizedRMSD -1
REMARK  Name = 
REMARK  7 active torsions:
REMARK  status: ('A' for Active; 'I' for Inactive)
REMARK    1  A    between atoms: C_1  and  C_2
REMARK    2  A    between atoms: C_2  and  N_3
REMARK    3  A    between atoms: N_3  and  C_4
REMARK    4  A    between atoms: N_7  and  N_8
REMARK    5  A    between atoms: N_13  and  C_14
REMARK    6  A    between atoms: C_14  and  C_15
REMARK    7  A    between atoms: C_14  and  C_16
REMARK                            x       y       z     vdW  Elec       q    Type
REMARK                         _______ _______ _______ _____ _____    ______ ____
ROOT
ATOM      1  C   UNL     1       7.347 -20.079 -42.705  0.00  0.00    +0.000 A 
ATOM      2  N   UNL     1       6.247 -20.469 -43.347  0.00  0.00    +0.000 NA
ATOM      3  C   UNL     1       6.267 -20.354 -44.665  0.00  0.00    +0.000 A 
ATOM      4  N   UNL     1       5.149 -20.782 -45.354  0.00  0.00    +0.000 N 
ATOM      5  N   UNL     1       7.281 -19.867 -45.356  0.00  0.00    +0.000 NA
ATOM      6  C   UNL     1       8.337 -19.492 -44.644  0.00  0.00    +0.000 A 
ATOM      7  N   UNL     1       8.413 -19.562 -43.318  0.00  0.00    +0.000 NA
ATOM      8  N   UNL     1       9.433 -19.009 -45.322  0.00  0.00    +0.000 N 
ATOM      9  H   UNL     1       4.439 -21.194 -44.781  0.00  0.00    +0.000 HD
ATOM     10  H   UNL     1      10.215 -18.788 -44.726  0.00  0.00    +0.000 HD
ENDROOT
BRANCH   8  11
ATOM     11  C   UNL     1       9.461 -18.906 -46.764  0.00  0.00    +0.000 C 
ATOM     12  C   UNL     1       9.708 -17.457 -47.171  0.00  0.00    +0.000 C 
ATOM     13  C   UNL     1      10.557 -19.797 -47.341  0.00  0.00    +0.000 C 
ENDBRANCH   8  11
BRANCH   4  14
ATOM     14  N   UNL     1       5.101 -20.696 -46.721  0.00  0.00    +0.000 NA
ATOM     15  N   UNL     1       4.984 -20.659 -47.831  0.00  0.00    +0.000 NA
ENDBRANCH   4  14
BRANCH   1  16
ATOM     16  N   UNL     1       7.363 -20.067 -41.358  0.00  0.00    +0.000 NA
BRANCH  16  18
ATOM     17  C   UNL     1       6.407 -17.797 -40.801  0.00  0.00    +0.000 C 
ATOM     18  C   UNL     1       7.563 -18.783 -40.666  0.00  0.00    +0.000 C 
ENDBRANCH  16  18
ENDBRANCH   1  16
TORSDOF 4
ENDMDL
MODEL 2
REMARK minimizedAffinity -0.000291515404
REMARK minimizedRMSD -1
REMARK  Name = 
REMARK  7 active torsions:
REMARK  status: ('A' for Active; 'I' for Inactive)
REMARK    1  A    between atoms: C_1  and  C_2
REMARK    2  A    between atoms: C_2  and  N_3
REMARK    3  A    between atoms: N_3  and  C_4
REMARK    4  A    between atoms: N_7  and  N_8
REMARK    5  A    between atoms: N_13  and  C_14
REMARK    6  A    between atoms: C_14  and  C_15
REMARK    7  A    between atoms: C_14  and  C_16
REMARK                            x       y       z     vdW  Elec       q    Type
REMARK                         _______ _______ _______ _____ _____    ______ ____
ROOT
ATOM      1  C   UNL     1     -14.024  -6.294 -20.475  0.00  0.00    +0.000 A 
ATOM      2  N   UNL     1     -13.008  -5.741 -19.814  0.00  0.00    +0.000 NA
ATOM      3  C   UNL     1     -13.183  -5.559 -18.515  0.00  0.00    +0.000 A 
ATOM      4  N   UNL     1     -12.131  -5.017 -17.805  0.00  0.00    +0.000 N 
ATOM      5  N   UNL     1     -14.288  -5.868 -17.862  0.00  0.00    +0.000 NA
ATOM      6  C   UNL     1     -15.258  -6.407 -18.590  0.00  0.00    +0.000 A 
ATOM      7  N   UNL     1     -15.182  -6.625 -19.900  0.00  0.00    +0.000 NA
ATOM      8  N   UNL     1     -16.418  -6.777 -17.948  0.00  0.00    +0.000 N 
ATOM      9  H   UNL     1     -11.302  -4.858 -18.345  0.00  0.00    +0.000 HD
ATOM     10  H   UNL     1     -17.092  -7.222 -18.550  0.00  0.00    +0.000 HD
ENDROOT
BRANCH   8  11
ATOM     11  C   UNL     1     -16.598  -6.599 -16.524  0.00  0.00    +0.000 C 
ATOM     12  C   UNL     1     -17.808  -5.708 -16.267  0.00  0.00    +0.000 C 
ATOM     13  C   UNL     1     -16.795  -7.948 -15.838  0.00  0.00    +0.000 C 
ENDBRANCH   8  11
BRANCH   4  14
ATOM     14  N   UNL     1     -12.240  -4.803 -16.456  0.00  0.00    +0.000 NA
ATOM     15  N   UNL     1     -12.250  -4.599 -15.358  0.00  0.00    +0.000 NA
ENDBRANCH   4  14
BRANCH   1  16
ATOM     16  N   UNL     1     -13.961  -6.414 -21.815  0.00  0.00    +0.000 NA
BRANCH  16  18
ATOM     17  C   UNL     1     -14.837  -4.187 -22.622  0.00  0.00    +0.000 C 
ATOM     18  C   UNL     1     -14.961  -5.707 -22.634  0.00  0.00    +0.000 C 
ENDBRANCH  16  18
ENDBRANCH   1  16
TORSDOF 4
ENDMDL
MODEL 3
REMARK minimizedAffinity -0.000283522619
REMARK minimizedRMSD -1
REMARK  Name = 
REMARK  7 active torsions:
REMARK  status: ('A' for Active; 'I' for Inactive)
REMARK    1  A    between atoms: C_1  and  C_2
REMARK    2  A    between atoms: C_2  and  N_3
REMARK    3  A    between atoms: N_3  and  C_4
REMARK    4  A    between atoms: N_7  and  N_8
REMARK    5  A    between atoms: N_13  and  C_14
REMARK    6  A    between atoms: C_14  and  C_15
REMARK    7  A    between atoms: C_14  and  C_16
REMARK                            x       y       z     vdW  Elec       q    Type
REMARK                         _______ _______ _______ _____ _____    ______ ____
ROOT
ATOM      1  C   UNL     1       9.406  -8.759 -14.350  0.00  0.00    +0.000 A 
ATOM      2  N   UNL     1       9.745  -9.729 -13.503  0.00  0.00    +0.000 NA
ATOM      3  C   UNL     1      10.271  -9.344 -12.352  0.00  0.00    +0.000 A 
ATOM      4  N   UNL     1      10.601 -10.331 -11.445  0.00  0.00    +0.000 N 
ATOM      5  N   UNL     1      10.491  -8.085 -12.016  0.00  0.00    +0.000 NA
ATOM      6  C   UNL     1      10.134  -7.178 -12.917  0.00  0.00    +0.000 A 
ATOM      7  N   UNL     1       9.604  -7.463 -14.103  0.00  0.00    +0.000 NA
ATOM      8  N   UNL     1      10.312  -5.850 -12.600  0.00  0.00    +0.000 N 
ATOM      9  H   UNL     1      10.357 -11.259 -11.733  0.00  0.00    +0.000 HD
ATOM     10  H   UNL     1       9.977  -5.215 -13.306  0.00  0.00    +0.000 HD
ENDROOT
BRANCH   8  11
ATOM     11  C   UNL     1      10.865  -5.431 -11.331  0.00  0.00    +0.000 C 
ATOM     12  C   UNL     1      12.129  -4.609 -11.568  0.00  0.00    +0.000 C 
ATOM     13  C   UNL     1       9.849  -4.600 -10.554  0.00  0.00    +0.000 C 
ENDBRANCH   8  11
BRANCH   4  14
ATOM     14  N   UNL     1      11.147 -10.006 -10.231  0.00  0.00    +0.000 NA
ATOM     15  N   UNL     1      11.594  -9.823  -9.224  0.00  0.00    +0.000 NA
ENDBRANCH   4  14
BRANCH   1  16
ATOM     16  N   UNL     1       8.962  -9.075 -15.583  0.00  0.00    +0.000 NA
BRANCH  16  18
ATOM     17  C   UNL     1      11.099  -9.291 -16.913  0.00  0.00    +0.000 C 
ATOM     18  C   UNL     1       9.738  -8.621 -16.749  0.00  0.00    +0.000 C 
ENDBRANCH  16  18
ENDBRANCH   1  16
TORSDOF 4
ENDMDL
MODEL 4
REMARK minimizedAffinity -0.000172629516
REMARK minimizedRMSD -1
REMARK  Name = 
REMARK  7 active torsions:
REMARK  status: ('A' for Active; 'I' for Inactive)
REMARK    1  A    between atoms: C_1  and  C_2
REMARK    2  A    between atoms: C_2  and  N_3
REMARK    3  A    between atoms: N_3  and  C_4
REMARK    4  A    between atoms: N_7  and  N_8
REMARK    5  A    between atoms: N_13  and  C_14
REMARK    6  A    between atoms: C_14  and  C_15
REMARK    7  A    between atoms: C_14  and  C_16
REMARK                            x       y       z     vdW  Elec       q    Type
REMARK                         _______ _______ _______ _____ _____    ______ ____
ROOT
ATOM      1  C   UNL     1      -7.124  -0.531 -59.072  0.00  0.00    +0.000 A 
ATOM      2  N   UNL     1      -7.585   0.694 -59.323  0.00  0.00    +0.000 NA
ATOM      3  C   UNL     1      -7.176   1.652 -58.508  0.00  0.00    +0.000 A 
ATOM      4  N   UNL     1      -7.617   2.934 -58.769  0.00  0.00    +0.000 N 
ATOM      5  N   UNL     1      -6.376   1.461 -57.475  0.00  0.00    +0.000 NA
ATOM      6  C   UNL     1      -5.967   0.213 -57.285  0.00  0.00    +0.000 A 
ATOM      7  N   UNL     1      -6.324  -0.820 -58.043  0.00  0.00    +0.000 NA
ATOM      8  N   UNL     1      -5.104  -0.031 -56.240  0.00  0.00    +0.000 N 
ATOM      9  H   UNL     1      -8.172   3.024 -59.598  0.00  0.00    +0.000 HD
ATOM     10  H   UNL     1      -4.796  -0.988 -56.183  0.00  0.00    +0.000 HD
ENDROOT
BRANCH   8  11
ATOM     11  C   UNL     1      -4.640   1.023 -55.365  0.00  0.00    +0.000 C 
ATOM     12  C   UNL     1      -5.044   0.711 -53.927  0.00  0.00    +0.000 C 
ATOM     13  C   UNL     1      -3.124   1.163 -55.455  0.00  0.00    +0.000 C 
ENDBRANCH   8  11
BRANCH   4  14
ATOM     14  N   UNL     1      -7.231   3.978 -57.968  0.00  0.00    +0.000 NA
ATOM     15  N   UNL     1      -6.963   4.878 -57.365  0.00  0.00    +0.000 NA
ENDBRANCH   4  14
BRANCH   1  16
ATOM     16  N   UNL     1      -7.577  -1.574 -59.793  0.00  0.00    +0.000 NA
BRANCH  16  18
ATOM     17  C   UNL     1      -9.664  -2.256 -58.544  0.00  0.00    +0.000 C 
ATOM     18  C   UNL     1      -8.298  -2.653 -59.096  0.00  0.00    +0.000 C 
ENDBRANCH  16  18
ENDBRANCH   1  16
TORSDOF 4
ENDMDL
MODEL 5
REMARK minimizedAffinity -0.000164684621
REMARK minimizedRMSD -1
REMARK  Name = 
REMARK  7 active torsions:
REMARK  status: ('A' for Active; 'I' for Inactive)
REMARK    1  A    between atoms: C_1  and  C_2
REMARK    2  A    between atoms: C_2  and  N_3
REMARK    3  A    between atoms: N_3  and  C_4
REMARK    4  A    between atoms: N_7  and  N_8
REMARK    5  A    between atoms: N_13  and  C_14
REMARK    6  A    between atoms: C_14  and  C_15
REMARK    7  A    between atoms: C_14  and  C_16
REMARK                            x       y       z     vdW  Elec       q    Type
REMARK                         _______ _______ _______ _____ _____    ______ ____
ROOT
ATOM      1  C   UNL     1       1.699  -7.227 -36.792  0.00  0.00    +0.000 A 
ATOM      2  N   UNL     1       1.751  -8.000 -37.875  0.00  0.00    +0.000 NA
ATOM      3  C   UNL     1       1.749  -9.306 -37.663  0.00  0.00    +0.000 A 
ATOM      4  N   UNL     1       1.770 -10.127 -38.773  0.00  0.00    +0.000 N 
ATOM      5  N   UNL     1       1.719  -9.868 -36.468  0.00  0.00    +0.000 NA
ATOM      6  C   UNL     1       1.677  -9.031 -35.438  0.00  0.00    +0.000 A 
ATOM      7  N   UNL     1       1.682  -7.705 -35.546  0.00  0.00    +0.000 NA
ATOM      8  N   UNL     1       1.611  -9.568 -34.173  0.00  0.00    +0.000 N 
ATOM      9  H   UNL     1       1.733  -9.644 -39.649  0.00  0.00    +0.000 HD
ATOM     10  H   UNL     1       1.534  -8.879 -33.442  0.00  0.00    +0.000 HD
ENDROOT
BRANCH   8  11
ATOM     11  C   UNL     1       1.585 -10.996 -33.944  0.00  0.00    +0.000 C 
ATOM     12  C   UNL     1       2.779 -11.402 -33.087  0.00  0.00    +0.000 C 
ATOM     13  C   UNL     1       0.289 -11.401 -33.249  0.00  0.00    +0.000 C 
ENDBRANCH   8  11
BRANCH   4  14
ATOM     14  N   UNL     1       1.766 -11.490 -38.629  0.00  0.00    +0.000 NA
ATOM     15  N   UNL     1       1.764 -12.606 -38.596  0.00  0.00    +0.000 NA
ENDBRANCH   4  14
BRANCH   1  16
ATOM     16  N   UNL     1       1.804  -5.890 -36.921  0.00  0.00    +0.000 NA
BRANCH  16  18
ATOM     17  C   UNL     1       4.302  -5.518 -36.893  0.00  0.00    +0.000 C 
ATOM     18  C   UNL     1       2.940  -5.207 -36.280  0.00  0.00    +0.000 C 
ENDBRANCH  16  18
ENDBRANCH   1  16
TORSDOF 4
ENDMDL
MODEL 6
REMARK minimizedAffinity -0.000146241437
REMARK minimizedRMSD -1
REMARK  Name = 
REMARK  7 active torsions:
REMARK  status: ('A' for Active; 'I' for Inactive)
REMARK    1  A    between atoms: C_1  and  C_2
REMARK    2  A    between atoms: C_2  and  N_3
REMARK    3  A    between atoms: N_3  and  C_4
REMARK    4  A    between atoms: N_7  and  N_8
REMARK    5  A    between atoms: N_13  and  C_14
REMARK    6  A    between atoms: C_14  and  C_15
REMARK    7  A    between atoms: C_14  and  C_16
REMARK                            x       y       z     vdW  Elec       q    Type
REMARK                         _______ _______ _______ _____ _____    ______ ____
ROOT
ATOM      1  C   UNL     1       8.985 -21.033 -24.570  0.00  0.00    +0.000 A 
ATOM      2  N   UNL     1       9.005 -21.745 -25.695  0.00  0.00    +0.000 NA
ATOM      3  C   UNL     1      10.188 -21.914 -26.261  0.00  0.00    +0.000 A 
ATOM      4  N   UNL     1      10.236 -22.676 -27.411  0.00  0.00    +0.000 N 
ATOM      5  N   UNL     1      11.317 -21.411 -25.794  0.00  0.00    +0.000 NA
ATOM      6  C   UNL     1      11.214 -20.706 -24.674  0.00  0.00    +0.000 A 
ATOM      7  N   UNL     1      10.072 -20.474 -24.033  0.00  0.00    +0.000 NA
ATOM      8  N   UNL     1      12.368 -20.189 -24.129  0.00  0.00    +0.000 N 
ATOM      9  H   UNL     1       9.359 -23.078 -27.682  0.00  0.00    +0.000 HD
ATOM     10  H   UNL     1      12.225 -19.707 -23.256  0.00  0.00    +0.000 HD
ENDROOT
BRANCH   8  11
ATOM     11  C   UNL     1      13.664 -20.395 -24.737  0.00  0.00    +0.000 C 
ATOM     12  C   UNL     1      14.289 -19.048 -25.084  0.00  0.00    +0.000 C 
ATOM     13  C   UNL     1      14.582 -21.161 -23.789  0.00  0.00    +0.000 C 
ENDBRANCH   8  11
BRANCH   4  14
ATOM     14  N   UNL     1      11.429 -22.896 -28.050  0.00  0.00    +0.000 NA
ATOM     15  N   UNL     1      12.359 -23.121 -28.626  0.00  0.00    +0.000 NA
ENDBRANCH   4  14
BRANCH   1  16
ATOM     16  N   UNL     1       7.806 -20.729 -23.993  0.00  0.00    +0.000 NA
BRANCH  16  18
ATOM     17  C   UNL     1       7.130 -18.601 -25.173  0.00  0.00    +0.000 C 
ATOM     18  C   UNL     1       7.432 -19.311 -23.857  0.00  0.00    +0.000 C 
ENDBRANCH  16  18
ENDBRANCH   1  16
TORSDOF 4
ENDMDL
MODEL 7
REMARK minimizedAffinity -0.000145524435
REMARK minimizedRMSD -1
REMARK  Name = 
REMARK  7 active torsions:
REMARK  status: ('A' for Active; 'I' for Inactive)
REMARK    1  A    between atoms: C_1  and  C_2
REMARK    2  A    between atoms: C_2  and  N_3
REMARK    3  A    between atoms: N_3  and  C_4
REMARK    4  A    between atoms: N_7  and  N_8
REMARK    5  A    between atoms: N_13  and  C_14
REMARK    6  A    between atoms: C_14  and  C_15
REMARK    7  A    between atoms: C_14  and  C_16
REMARK                            x       y       z     vdW  Elec       q    Type
REMARK                         _______ _______ _______ _____ _____    ______ ____
ROOT
ATOM      1  C   UNL     1      11.648   4.776 -67.801  0.00  0.00    +0.000 A 
ATOM      2  N   UNL     1      12.120   3.852 -68.637  0.00  0.00    +0.000 NA
ATOM      3  C   UNL     1      12.117   2.605 -68.194  0.00  0.00    +0.000 A 
ATOM      4  N   UNL     1      12.573   1.627 -69.056  0.00  0.00    +0.000 N 
ATOM      5  N   UNL     1      11.701   2.241 -66.995  0.00  0.00    +0.000 NA
ATOM      6  C   UNL     1      11.253   3.219 -66.218  0.00  0.00    +0.000 A 
ATOM      7  N   UNL     1      11.221   4.503 -66.567  0.00  0.00    +0.000 NA
ATOM      8  N   UNL     1      10.778   2.886 -64.970  0.00  0.00    +0.000 N 
ATOM      9  H   UNL     1      12.818   1.958 -69.969  0.00  0.00    +0.000 HD
ATOM     10  H   UNL     1      10.410   3.668 -64.452  0.00  0.00    +0.000 HD
ENDROOT
BRANCH   8  11
ATOM     11  C   UNL     1      10.753   1.519 -64.497  0.00  0.00    +0.000 C 
ATOM     12  C   UNL     1      11.577   1.402 -63.219  0.00  0.00    +0.000 C 
ATOM     13  C   UNL     1       9.319   1.073 -64.229  0.00  0.00    +0.000 C 
ENDBRANCH   8  11
BRANCH   4  14
ATOM     14  N   UNL     1      12.595   0.313 -68.666  0.00  0.00    +0.000 NA
ATOM     15  N   UNL     1      12.644  -0.775 -68.424  0.00  0.00    +0.000 NA
ENDBRANCH   4  14
BRANCH   1  16
ATOM     16  N   UNL     1      11.716   6.078 -68.140  0.00  0.00    +0.000 NA
BRANCH  16  18
ATOM     17  C   UNL     1      14.019   6.746 -67.347  0.00  0.00    +0.000 C 
ATOM     18  C   UNL     1      12.513   6.984 -67.296  0.00  0.00    +0.000 C 
ENDBRANCH  16  18
ENDBRANCH   1  16
TORSDOF 4
ENDMDL
MODEL 8
REMARK minimizedAffinity -0.000141275916
REMARK minimizedRMSD -1
REMARK  Name = 
REMARK  7 active torsions:
REMARK  status: ('A' for Active; 'I' for Inactive)
REMARK    1  A    between atoms: C_1  and  C_2
REMARK    2  A    between atoms: C_2  and  N_3
REMARK    3  A    between atoms: N_3  and  C_4
REMARK    4  A    between atoms: N_7  and  N_8
REMARK    5  A    between atoms: N_13  and  C_14
REMARK    6  A    between atoms: C_14  and  C_15
REMARK    7  A    between atoms: C_14  and  C_16
REMARK                            x       y       z     vdW  Elec       q    Type
REMARK                         _______ _______ _______ _____ _____    ______ ____
ROOT
ATOM      1  C   UNL     1     -13.431 -18.579 -29.581  0.00  0.00    +0.000 A 
ATOM      2  N   UNL     1     -12.731 -17.942 -28.644  0.00  0.00    +0.000 NA
ATOM      3  C   UNL     1     -13.354 -17.717 -27.498  0.00  0.00    +0.000 A 
ATOM      4  N   UNL     1     -12.637 -17.086 -26.502  0.00  0.00    +0.000 N 
ATOM      5  N   UNL     1     -14.605 -18.061 -27.250  0.00  0.00    +0.000 NA
ATOM      6  C   UNL     1     -15.238 -18.685 -28.236  0.00  0.00    +0.000 A 
ATOM      7  N   UNL     1     -14.703 -18.952 -29.424  0.00  0.00    +0.000 NA
ATOM      8  N   UNL     1     -16.534 -19.094 -28.013  0.00  0.00    +0.000 N 
ATOM      9  H   UNL     1     -11.679 -16.903 -26.730  0.00  0.00    +0.000 HD
ATOM     10  H   UNL     1     -16.938 -19.601 -28.784  0.00  0.00    +0.000 HD
ENDROOT
BRANCH   8  11
ATOM     11  C   UNL     1     -17.205 -18.867 -26.752  0.00  0.00    +0.000 C 
ATOM     12  C   UNL     1     -18.465 -18.039 -26.982  0.00  0.00    +0.000 C 
ATOM     13  C   UNL     1     -17.573 -20.195 -26.098  0.00  0.00    +0.000 C 
ENDBRANCH   8  11
BRANCH   4  14
ATOM     14  N   UNL     1     -13.217 -16.823 -25.288  0.00  0.00    +0.000 NA
ATOM     15  N   UNL     1     -13.617 -16.574 -24.276  0.00  0.00    +0.000 NA
ENDBRANCH   4  14
BRANCH   1  16
ATOM     16  N   UNL     1     -12.901 -18.751 -30.807  0.00  0.00    +0.000 NA
BRANCH  16  18
ATOM     17  C   UNL     1     -13.530 -16.615 -32.000  0.00  0.00    +0.000 C 
ATOM     18  C   UNL     1     -13.581 -18.139 -31.961  0.00  0.00    +0.000 C 
ENDBRANCH  16  18
ENDBRANCH   1  16
TORSDOF 4
ENDMDL
MODEL 9
REMARK minimizedAffinity -0.000139958924
REMARK minimizedRMSD -1
REMARK  Name = 
REMARK  7 active torsions:
REMARK  status: ('A' for Active; 'I' for Inactive)
REMARK    1  A    between atoms: C_1  and  C_2
REMARK    2  A    between atoms: C_2  and  N_3
REMARK    3  A    between atoms: N_3  and  C_4
REMARK    4  A    between atoms: N_7  and  N_8
REMARK    5  A    between atoms: N_13  and  C_14
REMARK    6  A    between atoms: C_14  and  C_15
REMARK    7  A    between atoms: C_14  and  C_16
REMARK                            x       y       z     vdW  Elec       q    Type
REMARK                         _______ _______ _______ _____ _____    ______ ____
ROOT
ATOM      1  C   UNL     1      -3.227 -15.732 -22.632  0.00  0.00    +0.000 A 
ATOM      2  N   UNL     1      -4.472 -15.791 -22.163  0.00  0.00    +0.000 NA
ATOM      3  C   UNL     1      -4.707 -16.708 -21.238  0.00  0.00    +0.000 A 
ATOM      4  N   UNL     1      -5.984 -16.766 -20.715  0.00  0.00    +0.000 N 
ATOM      5  N   UNL     1      -3.803 -17.556 -20.783  0.00  0.00    +0.000 NA
ATOM      6  C   UNL     1      -2.589 -17.440 -21.305  0.00  0.00    +0.000 A 
ATOM      7  N   UNL     1      -2.253 -16.557 -22.242  0.00  0.00    +0.000 NA
ATOM      8  N   UNL     1      -1.603 -18.281 -20.838  0.00  0.00    +0.000 N 
ATOM      9  H   UNL     1      -6.607 -16.060 -21.057  0.00  0.00    +0.000 HD
ATOM     10  H   UNL     1      -0.696 -18.107 -21.242  0.00  0.00    +0.000 HD
ENDROOT
BRANCH   8  11
ATOM     11  C   UNL     1      -1.857 -19.266 -19.810  0.00  0.00    +0.000 C 
ATOM     12  C   UNL     1      -1.544 -20.659 -20.346  0.00  0.00    +0.000 C 
ATOM     13  C   UNL     1      -1.002 -18.983 -18.578  0.00  0.00    +0.000 C 
ENDBRANCH   8  11
BRANCH   4  14
ATOM     14  N   UNL     1      -6.298 -17.688 -19.751  0.00  0.00    +0.000 NA
ATOM     15  N   UNL     1      -6.633 -18.409 -18.967  0.00  0.00    +0.000 NA
ENDBRANCH   4  14
BRANCH   1  16
ATOM     16  N   UNL     1      -2.936 -14.897 -23.648  0.00  0.00    +0.000 NA
BRANCH  16  18
ATOM     17  C   UNL     1      -3.483 -16.282 -25.688  0.00  0.00    +0.000 C 
ATOM     18  C   UNL     1      -2.449 -15.471 -24.914  0.00  0.00    +0.000 C 
ENDBRANCH  16  18
ENDBRANCH   1  16
TORSDOF 4
ENDMDL
