MODEL 1
REMARK minimizedAffinity -4.4777894
REMARK minimizedRMSD -1
REMARK  Name = 
REMARK  7 active torsions:
REMARK  status: ('A' for Active; 'I' for Inactive)
REMARK    1  A    between atoms: C_1  and  C_2
REMARK    2  A    between atoms: C_2  and  N_3
REMARK    3  A    between atoms: N_3  and  C_4
REMARK    4  A    between atoms: N_7  and  N_8
REMARK    5  A    between atoms: N_13  and  C_14
REMARK    6  A    between atoms: C_14  and  C_15
REMARK    7  A    between atoms: C_14  and  C_16
REMARK                            x       y       z     vdW  Elec       q    Type
REMARK                         _______ _______ _______ _____ _____    ______ ____
ROOT
ATOM      1  C   UNL     1      15.757   5.383  11.380  0.00  0.00    +0.000 A 
ATOM      2  N   UNL     1      15.113   6.393  11.962  0.00  0.00    +0.000 NA
ATOM      3  C   UNL     1      15.463   6.672  13.207  0.00  0.00    +0.000 A 
ATOM      4  N   UNL     1      14.830   7.735  13.819  0.00  0.00    +0.000 N 
ATOM      5  N   UNL     1      16.376   6.007  13.891  0.00  0.00    +0.000 NA
ATOM      6  C   UNL     1      16.968   5.009  13.245  0.00  0.00    +0.000 A 
ATOM      7  N   UNL     1      16.683   4.647  11.997  0.00  0.00    +0.000 NA
ATOM      8  N   UNL     1      17.951   4.307  13.905  0.00  0.00    +0.000 N 
ATOM      9  H   UNL     1      14.191   8.234  13.231  0.00  0.00    +0.000 HD
ATOM     10  H   UNL     1      18.390   3.596  13.342  0.00  0.00    +0.000 HD
ENDROOT
BRANCH   8  11
ATOM     11  C   UNL     1      18.349   4.628  15.258  0.00  0.00    +0.000 C 
ATOM     12  C   UNL     1      18.604   3.343  16.037  0.00  0.00    +0.000 C 
ATOM     13  C   UNL     1      19.609   5.488  15.254  0.00  0.00    +0.000 C 
ENDBRANCH   8  11
BRANCH   4  14
ATOM     14  N   UNL     1      15.144   8.083  15.107  0.00  0.00    +0.000 NA
ATOM     15  N   UNL     1      15.418   8.443  16.128  0.00  0.00    +0.000 NA
ENDBRANCH   4  14
BRANCH   1  16
ATOM     16  N   UNL     1      15.384   4.973  10.152  0.00  0.00    +0.000 NA
BRANCH  16  18
ATOM     17  C   UNL     1      14.289   3.213   8.709  0.00  0.00    +0.000 C 
ATOM     18  C   UNL     1      15.141   3.537   9.931  0.00  0.00    +0.000 C 
ENDBRANCH  16  18
ENDBRANCH   1  16
TORSDOF 4
ENDMDL
MODEL 2
REMARK minimizedAffinity -4.46858072
REMARK minimizedRMSD -1
REMARK  Name = 
REMARK  7 active torsions:
REMARK  status: ('A' for Active; 'I' for Inactive)
REMARK    1  A    between atoms: C_1  and  C_2
REMARK    2  A    between atoms: C_2  and  N_3
REMARK    3  A    between atoms: N_3  and  C_4
REMARK    4  A    between atoms: N_7  and  N_8
REMARK    5  A    between atoms: N_13  and  C_14
REMARK    6  A    between atoms: C_14  and  C_15
REMARK    7  A    between atoms: C_14  and  C_16
REMARK                            x       y       z     vdW  Elec       q    Type
REMARK                         _______ _______ _______ _____ _____    ______ ____
ROOT
ATOM      1  C   UNL     1      14.525  23.401  21.848  0.00  0.00    +0.000 A 
ATOM      2  N   UNL     1      13.207  23.212  21.852  0.00  0.00    +0.000 NA
ATOM      3  C   UNL     1      12.479  24.172  22.398  0.00  0.00    +0.000 A 
ATOM      4  N   UNL     1      11.108  24.012  22.385  0.00  0.00    +0.000 N 
ATOM      5  N   UNL     1      12.977  25.267  22.943  0.00  0.00    +0.000 NA
ATOM      6  C   UNL     1      14.299  25.379  22.908  0.00  0.00    +0.000 A 
ATOM      7  N   UNL     1      15.118  24.468  22.388  0.00  0.00    +0.000 NA
ATOM      8  N   UNL     1      14.865  26.519  23.433  0.00  0.00    +0.000 N 
ATOM      9  H   UNL     1      10.789  23.191  21.907  0.00  0.00    +0.000 HD
ATOM     10  H   UNL     1      15.866  26.561  23.331  0.00  0.00    +0.000 HD
ENDROOT
BRANCH   8  11
ATOM     11  C   UNL     1      14.065  27.578  24.009  0.00  0.00    +0.000 C 
ATOM     12  C   UNL     1      14.656  27.996  25.351  0.00  0.00    +0.000 C 
ATOM     13  C   UNL     1      14.017  28.780  23.071  0.00  0.00    +0.000 C 
ENDBRANCH   8  11
BRANCH   4  14
ATOM     14  N   UNL     1      10.291  24.968  22.930  0.00  0.00    +0.000 NA
ATOM     15  N   UNL     1       9.627  25.703  23.446  0.00  0.00    +0.000 NA
ENDBRANCH   4  14
BRANCH   1  16
ATOM     16  N   UNL     1      15.338  22.422  21.404  0.00  0.00    +0.000 NA
BRANCH  16  18
ATOM     17  C   UNL     1      15.348  20.650  23.204  0.00  0.00    +0.000 C 
ATOM     18  C   UNL     1      16.136  21.670  22.387  0.00  0.00    +0.000 C 
ENDBRANCH  16  18
ENDBRANCH   1  16
TORSDOF 4
ENDMDL
MODEL 3
REMARK minimizedAffinity -4.44870138
REMARK minimizedRMSD -1
REMARK  Name = 
REMARK  7 active torsions:
REMARK  status: ('A' for Active; 'I' for Inactive)
REMARK    1  A    between atoms: C_1  and  C_2
REMARK    2  A    between atoms: C_2  and  N_3
REMARK    3  A    between atoms: N_3  and  C_4
REMARK    4  A    between atoms: N_7  and  N_8
REMARK    5  A    between atoms: N_13  and  C_14
REMARK    6  A    between atoms: C_14  and  C_15
REMARK    7  A    between atoms: C_14  and  C_16
REMARK                            x       y       z     vdW  Elec       q    Type
REMARK                         _______ _______ _______ _____ _____    ______ ____
ROOT
ATOM      1  C   UNL     1     -21.237 -28.563   3.393  0.00  0.00    +0.000 A 
ATOM      2  N   UNL     1     -21.688 -29.612   2.707  0.00  0.00    +0.000 NA
ATOM      3  C   UNL     1     -22.698 -30.274   3.247  0.00  0.00    +0.000 A 
ATOM      4  N   UNL     1     -23.202 -31.346   2.538  0.00  0.00    +0.000 N 
ATOM      5  N   UNL     1     -23.252 -29.972   4.407  0.00  0.00    +0.000 NA
ATOM      6  C   UNL     1     -22.742 -28.920   5.034  0.00  0.00    +0.000 A 
ATOM      7  N   UNL     1     -21.725 -28.193   4.578  0.00  0.00    +0.000 NA
ATOM      8  N   UNL     1     -23.308 -28.545   6.232  0.00  0.00    +0.000 N 
ATOM      9  H   UNL     1     -22.780 -31.488   1.641  0.00  0.00    +0.000 HD
ATOM     10  H   UNL     1     -22.904 -27.711   6.629  0.00  0.00    +0.000 HD
ENDROOT
BRANCH   8  11
ATOM     11  C   UNL     1     -24.427 -29.256   6.809  0.00  0.00    +0.000 C 
ATOM     12  C   UNL     1     -23.957 -30.060   8.017  0.00  0.00    +0.000 C 
ATOM     13  C   UNL     1     -25.519 -28.280   7.233  0.00  0.00    +0.000 C 
ENDBRANCH   8  11
BRANCH   4  14
ATOM     14  N   UNL     1     -24.250 -32.077   3.035  0.00  0.00    +0.000 NA
ATOM     15  N   UNL     1     -25.149 -32.644   3.376  0.00  0.00    +0.000 NA
ENDBRANCH   4  14
BRANCH   1  16
ATOM     16  N   UNL     1     -20.145 -27.903   2.959  0.00  0.00    +0.000 NA
BRANCH  16  18
ATOM     17  C   UNL     1     -17.945 -29.104   3.262  0.00  0.00    +0.000 C 
ATOM     18  C   UNL     1     -19.064 -28.672   2.320  0.00  0.00    +0.000 C 
ENDBRANCH  16  18
ENDBRANCH   1  16
TORSDOF 4
ENDMDL
MODEL 4
REMARK minimizedAffinity -4.43307781
REMARK minimizedRMSD -1
REMARK  Name = 
REMARK  7 active torsions:
REMARK  status: ('A' for Active; 'I' for Inactive)
REMARK    1  A    between atoms: C_1  and  C_2
REMARK    2  A    between atoms: C_2  and  N_3
REMARK    3  A    between atoms: N_3  and  C_4
REMARK    4  A    between atoms: N_7  and  N_8
REMARK    5  A    between atoms: N_13  and  C_14
REMARK    6  A    between atoms: C_14  and  C_15
REMARK    7  A    between atoms: C_14  and  C_16
REMARK                            x       y       z     vdW  Elec       q    Type
REMARK                         _______ _______ _______ _____ _____    ______ ____
ROOT
ATOM      1  C   UNL     1     -28.797 -11.687  -0.896  0.00  0.00    +0.000 A 
ATOM      2  N   UNL     1     -28.599 -12.171   0.329  0.00  0.00    +0.000 NA
ATOM      3  C   UNL     1     -28.562 -11.285   1.311  0.00  0.00    +0.000 A 
ATOM      4  N   UNL     1     -28.390 -11.768   2.592  0.00  0.00    +0.000 N 
ATOM      5  N   UNL     1     -28.685  -9.981   1.143  0.00  0.00    +0.000 NA
ATOM      6  C   UNL     1     -28.871  -9.575  -0.107  0.00  0.00    +0.000 A 
ATOM      7  N   UNL     1     -28.917 -10.384  -1.162  0.00  0.00    +0.000 NA
ATOM      8  N   UNL     1     -29.038  -8.227  -0.330  0.00  0.00    +0.000 N 
ATOM      9  H   UNL     1     -28.361 -12.767   2.661  0.00  0.00    +0.000 HD
ATOM     10  H   UNL     1     -29.222  -7.993  -1.293  0.00  0.00    +0.000 HD
ENDROOT
BRANCH   8  11
ATOM     11  C   UNL     1     -29.020  -7.262   0.747  0.00  0.00    +0.000 C 
ATOM     12  C   UNL     1     -28.206  -6.042   0.331  0.00  0.00    +0.000 C 
ATOM     13  C   UNL     1     -30.440  -6.837   1.107  0.00  0.00    +0.000 C 
ENDBRANCH   8  11
BRANCH   4  14
ATOM     14  N   UNL     1     -28.344 -10.908   3.659  0.00  0.00    +0.000 NA
ATOM     15  N   UNL     1     -28.265 -10.266   4.569  0.00  0.00    +0.000 NA
ENDBRANCH   4  14
BRANCH   1  16
ATOM     16  N   UNL     1     -28.743 -12.515  -1.957  0.00  0.00    +0.000 NA
BRANCH  16  18
ATOM     17  C   UNL     1     -28.316 -14.793  -2.961  0.00  0.00    +0.000 C 
ATOM     18  C   UNL     1     -28.611 -13.962  -1.716  0.00  0.00    +0.000 C 
ENDBRANCH  16  18
ENDBRANCH   1  16
TORSDOF 4
ENDMDL
MODEL 5
REMARK minimizedAffinity -4.3443861
REMARK minimizedRMSD -1
REMARK  Name = 
REMARK  7 active torsions:
REMARK  status: ('A' for Active; 'I' for Inactive)
REMARK    1  A    between atoms: C_1  and  C_2
REMARK    2  A    between atoms: C_2  and  N_3
REMARK    3  A    between atoms: N_3  and  C_4
REMARK    4  A    between atoms: N_7  and  N_8
REMARK    5  A    between atoms: N_13  and  C_14
REMARK    6  A    between atoms: C_14  and  C_15
REMARK    7  A    between atoms: C_14  and  C_16
REMARK                            x       y       z     vdW  Elec       q    Type
REMARK                         _______ _______ _______ _____ _____    ______ ____
ROOT
ATOM      1  C   UNL     1     -20.999 -28.642   3.360  0.00  0.00    +0.000 A 
ATOM      2  N   UNL     1     -21.621 -28.216   4.459  0.00  0.00    +0.000 NA
ATOM      3  C   UNL     1     -22.707 -28.883   4.813  0.00  0.00    +0.000 A 
ATOM      4  N   UNL     1     -23.349 -28.478   5.966  0.00  0.00    +0.000 N 
ATOM      5  N   UNL     1     -23.207 -29.905   4.142  0.00  0.00    +0.000 NA
ATOM      6  C   UNL     1     -22.536 -30.264   3.054  0.00  0.00    +0.000 A 
ATOM      7  N   UNL     1     -21.439 -29.656   2.612  0.00  0.00    +0.000 NA
ATOM      8  N   UNL     1     -22.999 -31.345   2.339  0.00  0.00    +0.000 N 
ATOM      9  H   UNL     1     -22.891 -27.737   6.461  0.00  0.00    +0.000 HD
ATOM     10  H   UNL     1     -22.418 -31.593   1.554  0.00  0.00    +0.000 HD
ENDROOT
BRANCH   8  11
ATOM     11  C   UNL     1     -24.174 -32.087   2.741  0.00  0.00    +0.000 C 
ATOM     12  C   UNL     1     -25.368 -31.656   1.895  0.00  0.00    +0.000 C 
ATOM     13  C   UNL     1     -23.941 -33.585   2.579  0.00  0.00    +0.000 C 
ENDBRANCH   8  11
BRANCH   4  14
ATOM     14  N   UNL     1     -24.479 -29.124   6.396  0.00  0.00    +0.000 NA
ATOM     15  N   UNL     1     -25.445 -29.587   6.714  0.00  0.00    +0.000 NA
ENDBRANCH   4  14
BRANCH   1  16
ATOM     16  N   UNL     1     -19.948 -27.951   2.879  0.00  0.00    +0.000 NA
BRANCH  16  18
ATOM     17  C   UNL     1     -17.824 -29.236   3.342  0.00  0.00    +0.000 C 
ATOM     18  C   UNL     1     -18.813 -28.699   2.313  0.00  0.00    +0.000 C 
ENDBRANCH  16  18
ENDBRANCH   1  16
TORSDOF 4
ENDMDL
MODEL 6
REMARK minimizedAffinity -4.32288694
REMARK minimizedRMSD -1
REMARK  Name = 
REMARK  7 active torsions:
REMARK  status: ('A' for Active; 'I' for Inactive)
REMARK    1  A    between atoms: C_1  and  C_2
REMARK    2  A    between atoms: C_2  and  N_3
REMARK    3  A    between atoms: N_3  and  C_4
REMARK    4  A    between atoms: N_7  and  N_8
REMARK    5  A    between atoms: N_13  and  C_14
REMARK    6  A    between atoms: C_14  and  C_15
REMARK    7  A    between atoms: C_14  and  C_16
REMARK                            x       y       z     vdW  Elec       q    Type
REMARK                         _______ _______ _______ _____ _____    ______ ____
ROOT
ATOM      1  C   UNL     1     -21.267 -23.117  -8.058  0.00  0.00    +0.000 A 
ATOM      2  N   UNL     1     -20.629 -22.260  -8.853  0.00  0.00    +0.000 NA
ATOM      3  C   UNL     1     -19.555 -22.723  -9.471  0.00  0.00    +0.000 A 
ATOM      4  N   UNL     1     -18.896 -21.861 -10.325  0.00  0.00    +0.000 N 
ATOM      5  N   UNL     1     -19.084 -23.949  -9.331  0.00  0.00    +0.000 NA
ATOM      6  C   UNL     1     -19.770 -24.741  -8.516  0.00  0.00    +0.000 A 
ATOM      7  N   UNL     1     -20.856 -24.369  -7.844  0.00  0.00    +0.000 NA
ATOM      8  N   UNL     1     -19.337 -26.038  -8.362  0.00  0.00    +0.000 N 
ATOM      9  H   UNL     1     -19.334 -20.967 -10.434  0.00  0.00    +0.000 HD
ATOM     10  H   UNL     1     -19.930 -26.597  -7.768  0.00  0.00    +0.000 HD
ENDROOT
BRANCH   8  11
ATOM     11  C   UNL     1     -18.177 -26.549  -9.058  0.00  0.00    +0.000 C 
ATOM     12  C   UNL     1     -17.389 -27.472  -8.134  0.00  0.00    +0.000 C 
ATOM     13  C   UNL     1     -18.599 -27.311 -10.310  0.00  0.00    +0.000 C 
ENDBRANCH   8  11
BRANCH   4  14
ATOM     14  N   UNL     1     -17.778 -22.273 -11.002  0.00  0.00    +0.000 NA
ATOM     15  N   UNL     1     -16.891 -22.560 -11.617  0.00  0.00    +0.000 NA
ENDBRANCH   4  14
BRANCH   1  16
ATOM     16  N   UNL     1     -22.306 -22.690  -7.314  0.00  0.00    +0.000 NA
BRANCH  16  18
ATOM     17  C   UNL     1     -21.874 -20.947  -5.537  0.00  0.00    +0.000 C 
ATOM     18  C   UNL     1     -22.369 -21.266  -6.945  0.00  0.00    +0.000 C 
ENDBRANCH  16  18
ENDBRANCH   1  16
TORSDOF 4
ENDMDL
MODEL 7
REMARK minimizedAffinity -4.26710081
REMARK minimizedRMSD -1
REMARK  Name = 
REMARK  7 active torsions:
REMARK  status: ('A' for Active; 'I' for Inactive)
REMARK    1  A    between atoms: C_1  and  C_2
REMARK    2  A    between atoms: C_2  and  N_3
REMARK    3  A    between atoms: N_3  and  C_4
REMARK    4  A    between atoms: N_7  and  N_8
REMARK    5  A    between atoms: N_13  and  C_14
REMARK    6  A    between atoms: C_14  and  C_15
REMARK    7  A    between atoms: C_14  and  C_16
REMARK                            x       y       z     vdW  Elec       q    Type
REMARK                         _______ _______ _______ _____ _____    ______ ____
ROOT
ATOM      1  C   UNL     1     -20.989 -28.719   4.030  0.00  0.00    +0.000 A 
ATOM      2  N   UNL     1     -20.590 -29.926   4.428  0.00  0.00    +0.000 NA
ATOM      3  C   UNL     1     -21.419 -30.587   5.219  0.00  0.00    +0.000 A 
ATOM      4  N   UNL     1     -21.039 -31.853   5.618  0.00  0.00    +0.000 N 
ATOM      5  N   UNL     1     -22.579 -30.117   5.641  0.00  0.00    +0.000 NA
ATOM      6  C   UNL     1     -22.903 -28.905   5.209  0.00  0.00    +0.000 A 
ATOM      7  N   UNL     1     -22.136 -28.159   4.417  0.00  0.00    +0.000 NA
ATOM      8  N   UNL     1     -24.118 -28.385   5.594  0.00  0.00    +0.000 N 
ATOM      9  H   UNL     1     -20.179 -32.175   5.219  0.00  0.00    +0.000 HD
ATOM     10  H   UNL     1     -24.320 -27.484   5.193  0.00  0.00    +0.000 HD
ENDROOT
BRANCH   8  11
ATOM     11  C   UNL     1     -25.033 -29.118   6.441  0.00  0.00    +0.000 C 
ATOM     12  C   UNL     1     -25.490 -28.231   7.593  0.00  0.00    +0.000 C 
ATOM     13  C   UNL     1     -26.243 -29.586   5.638  0.00  0.00    +0.000 C 
ENDBRANCH   8  11
BRANCH   4  14
ATOM     14  N   UNL     1     -21.850 -32.596   6.435  0.00  0.00    +0.000 NA
ATOM     15  N   UNL     1     -22.481 -33.270   7.063  0.00  0.00    +0.000 NA
ENDBRANCH   4  14
BRANCH   1  16
ATOM     16  N   UNL     1     -20.154 -27.945   3.310  0.00  0.00    +0.000 NA
BRANCH  16  18
ATOM     17  C   UNL     1     -18.769 -28.935   1.444  0.00  0.00    +0.000 C 
ATOM     18  C   UNL     1     -18.852 -28.500   2.904  0.00  0.00    +0.000 C 
ENDBRANCH  16  18
ENDBRANCH   1  16
TORSDOF 4
ENDMDL
MODEL 8
REMARK minimizedAffinity -4.25267744
REMARK minimizedRMSD -1
REMARK  Name = 
REMARK  7 active torsions:
REMARK  status: ('A' for Active; 'I' for Inactive)
REMARK    1  A    between atoms: C_1  and  C_2
REMARK    2  A    between atoms: C_2  and  N_3
REMARK    3  A    between atoms: N_3  and  C_4
REMARK    4  A    between atoms: N_7  and  N_8
REMARK    5  A    between atoms: N_13  and  C_14
REMARK    6  A    between atoms: C_14  and  C_15
REMARK    7  A    between atoms: C_14  and  C_16
REMARK                            x       y       z     vdW  Elec       q    Type
REMARK                         _______ _______ _______ _____ _____    ______ ____
ROOT
ATOM      1  C   UNL     1      15.265  22.999  22.061  0.00  0.00    +0.000 A 
ATOM      2  N   UNL     1      15.912  23.843  22.863  0.00  0.00    +0.000 NA
ATOM      3  C   UNL     1      15.216  24.874  23.314  0.00  0.00    +0.000 A 
ATOM      4  N   UNL     1      15.859  25.744  24.172  0.00  0.00    +0.000 N 
ATOM      5  N   UNL     1      13.955  25.115  23.003  0.00  0.00    +0.000 NA
ATOM      6  C   UNL     1      13.382  24.234  22.193  0.00  0.00    +0.000 A 
ATOM      7  N   UNL     1      13.997  23.170  21.682  0.00  0.00    +0.000 NA
ATOM      8  N   UNL     1      12.058  24.423  21.866  0.00  0.00    +0.000 N 
ATOM      9  H   UNL     1      16.792  25.476  24.415  0.00  0.00    +0.000 HD
ATOM     10  H   UNL     1      11.674  23.694  21.287  0.00  0.00    +0.000 HD
ENDROOT
BRANCH   8  11
ATOM     11  C   UNL     1      11.293  25.538  22.379  0.00  0.00    +0.000 C 
ATOM     12  C   UNL     1      11.068  26.561  21.269  0.00  0.00    +0.000 C 
ATOM     13  C   UNL     1       9.949  25.059  22.919  0.00  0.00    +0.000 C 
ENDBRANCH   8  11
BRANCH   4  14
ATOM     14  N   UNL     1      15.198  26.832  24.680  0.00  0.00    +0.000 NA
ATOM     15  N   UNL     1      14.694  27.764  25.033  0.00  0.00    +0.000 NA
ENDBRANCH   4  14
BRANCH   1  16
ATOM     16  N   UNL     1      15.935  21.985  21.480  0.00  0.00    +0.000 NA
BRANCH  16  18
ATOM     17  C   UNL     1      15.455  20.235  23.236  0.00  0.00    +0.000 C 
ATOM     18  C   UNL     1      16.480  20.918  22.335  0.00  0.00    +0.000 C 
ENDBRANCH  16  18
ENDBRANCH   1  16
TORSDOF 4
ENDMDL
MODEL 9
REMARK minimizedAffinity -4.19183064
REMARK minimizedRMSD -1
REMARK  Name = 
REMARK  7 active torsions:
REMARK  status: ('A' for Active; 'I' for Inactive)
REMARK    1  A    between atoms: C_1  and  C_2
REMARK    2  A    between atoms: C_2  and  N_3
REMARK    3  A    between atoms: N_3  and  C_4
REMARK    4  A    between atoms: N_7  and  N_8
REMARK    5  A    between atoms: N_13  and  C_14
REMARK    6  A    between atoms: C_14  and  C_15
REMARK    7  A    between atoms: C_14  and  C_16
REMARK                            x       y       z     vdW  Elec       q    Type
REMARK                         _______ _______ _______ _____ _____    ______ ____
ROOT
ATOM      1  C   UNL     1     -21.745 -23.520  -8.059  0.00  0.00    +0.000 A 
ATOM      2  N   UNL     1     -20.484 -23.282  -8.416  0.00  0.00    +0.000 NA
ATOM      3  C   UNL     1     -19.711 -24.343  -8.580  0.00  0.00    +0.000 A 
ATOM      4  N   UNL     1     -18.409 -24.120  -8.981  0.00  0.00    +0.000 N 
ATOM      5  N   UNL     1     -20.106 -25.589  -8.392  0.00  0.00    +0.000 NA
ATOM      6  C   UNL     1     -21.373 -25.744  -8.029  0.00  0.00    +0.000 A 
ATOM      7  N   UNL     1     -22.228 -24.744  -7.833  0.00  0.00    +0.000 NA
ATOM      8  N   UNL     1     -21.841 -27.027  -7.854  0.00  0.00    +0.000 N 
ATOM      9  H   UNL     1     -18.187 -23.161  -9.163  0.00  0.00    +0.000 HD
ATOM     10  H   UNL     1     -22.822 -27.074  -7.626  0.00  0.00    +0.000 HD
ENDROOT
BRANCH   8  11
ATOM     11  C   UNL     1     -21.001 -28.186  -8.056  0.00  0.00    +0.000 C 
ATOM     12  C   UNL     1     -20.433 -28.649  -6.718  0.00  0.00    +0.000 C 
ATOM     13  C   UNL     1     -21.798 -29.318  -8.697  0.00  0.00    +0.000 C 
ENDBRANCH   8  11
BRANCH   4  14
ATOM     14  N   UNL     1     -17.552 -25.173  -9.173  0.00  0.00    +0.000 NA
ATOM     15  N   UNL     1     -16.811 -26.003  -9.263  0.00  0.00    +0.000 NA
ENDBRANCH   4  14
BRANCH   1  16
ATOM     16  N   UNL     1     -22.563 -22.489  -7.772  0.00  0.00    +0.000 NA
BRANCH  16  18
ATOM     17  C   UNL     1     -21.933 -21.086  -5.768  0.00  0.00    +0.000 C 
ATOM     18  C   UNL     1     -21.968 -21.232  -7.286  0.00  0.00    +0.000 C 
ENDBRANCH  16  18
ENDBRANCH   1  16
TORSDOF 4
ENDMDL
