MODEL 1
REMARK minimizedAffinity -3.98150563
REMARK minimizedRMSD -1
REMARK  Name = 
REMARK  7 active torsions:
REMARK  status: ('A' for Active; 'I' for Inactive)
REMARK    1  A    between atoms: N_2  and  N_3
REMARK    2  A    between atoms: C_6  and  N_7
REMARK    3  A    between atoms: N_7  and  C_8
REMARK    4  A    between atoms: C_8  and  C_9
REMARK    5  A    between atoms: C_8  and  C_10
REMARK    6  A    between atoms: C_12  and  S_14
REMARK    7  A    between atoms: S_14  and  C_15
REMARK                            x       y       z     vdW  Elec       q    Type
REMARK                         _______ _______ _______ _____ _____    ______ ____
ROOT
ATOM      1  N   UNL     1     -19.342 -26.378  -8.134  0.00  0.00    +0.000 N 
ATOM      2  C   UNL     1     -19.793 -25.130  -8.510  0.00  0.00    +0.000 A 
ATOM      3  N   UNL     1     -20.782 -24.604  -7.814  0.00  0.00    +0.000 NA
ATOM      4  C   UNL     1     -21.148 -23.365  -8.108  0.00  0.00    +0.000 A 
ATOM      5  N   UNL     1     -20.621 -22.679  -9.111  0.00  0.00    +0.000 NA
ATOM      6  C   UNL     1     -19.666 -23.312  -9.797  0.00  0.00    +0.000 A 
ATOM      7  N   UNL     1     -19.168 -24.522  -9.517  0.00  0.00    +0.000 NA
ATOM      8  H   UNL     1     -18.361 -26.537  -8.225  0.00  0.00    +0.000 HD
ENDROOT
BRANCH   1  10
ATOM      9  N   UNL     1     -20.795 -28.168  -7.201  0.00  0.00    +0.000 NA
ATOM     10  N   UNL     1     -20.212 -27.314  -7.622  0.00  0.00    +0.000 NA
ENDBRANCH   1  10
BRANCH   6  11
ATOM     11  S   UNL     1     -19.041 -22.401 -11.211  0.00  0.00    +0.000 S 
ATOM     12  C   UNL     1     -17.254 -22.669 -11.128  0.00  0.00    +0.000 C 
ENDBRANCH   6  11
BRANCH   4  13
ATOM     13  N   UNL     1     -22.095 -22.739  -7.383  0.00  0.00    +0.000 NA
BRANCH  13  14
ATOM     14  C   UNL     1     -21.948 -21.293  -7.093  0.00  0.00    +0.000 C 
ATOM     15  C   UNL     1     -23.028 -20.437  -7.765  0.00  0.00    +0.000 C 
ATOM     16  C   UNL     1     -21.843 -20.992  -5.593  0.00  0.00    +0.000 C 
ENDBRANCH  13  14
ENDBRANCH   4  13
TORSDOF 4
ENDMDL
MODEL 2
REMARK minimizedAffinity -3.88880086
REMARK minimizedRMSD -1
REMARK  Name = 
REMARK  7 active torsions:
REMARK  status: ('A' for Active; 'I' for Inactive)
REMARK    1  A    between atoms: N_2  and  N_3
REMARK    2  A    between atoms: C_6  and  N_7
REMARK    3  A    between atoms: N_7  and  C_8
REMARK    4  A    between atoms: C_8  and  C_9
REMARK    5  A    between atoms: C_8  and  C_10
REMARK    6  A    between atoms: C_12  and  S_14
REMARK    7  A    between atoms: S_14  and  C_15
REMARK                            x       y       z     vdW  Elec       q    Type
REMARK                         _______ _______ _______ _____ _____    ______ ____
ROOT
ATOM      1  N   UNL     1     -24.329 -28.641   5.162  0.00  0.00    +0.000 N 
ATOM      2  C   UNL     1     -23.007 -28.997   4.989  0.00  0.00    +0.000 A 
ATOM      3  N   UNL     1     -22.475 -29.814   5.876  0.00  0.00    +0.000 NA
ATOM      4  C   UNL     1     -21.238 -30.237   5.656  0.00  0.00    +0.000 A 
ATOM      5  N   UNL     1     -20.505 -29.814   4.638  0.00  0.00    +0.000 NA
ATOM      6  C   UNL     1     -21.106 -28.943   3.823  0.00  0.00    +0.000 A 
ATOM      7  N   UNL     1     -22.376 -28.531   3.912  0.00  0.00    +0.000 NA
ATOM      8  H   UNL     1     -24.867 -28.530   4.329  0.00  0.00    +0.000 HD
ENDROOT
BRANCH   1  10
ATOM      9  N   UNL     1     -25.147 -28.334   7.491  0.00  0.00    +0.000 NA
ATOM     10  N   UNL     1     -24.858 -28.501   6.425  0.00  0.00    +0.000 NA
ENDBRANCH   1  10
BRANCH   6  11
ATOM     11  S   UNL     1     -20.057 -28.308   2.513  0.00  0.00    +0.000 S 
ATOM     12  C   UNL     1     -18.385 -28.678   3.096  0.00  0.00    +0.000 C 
ENDBRANCH   6  11
BRANCH   4  13
ATOM     13  N   UNL     1     -20.665 -31.135   6.479  0.00  0.00    +0.000 NA
BRANCH  13  14
ATOM     14  C   UNL     1     -20.873 -31.015   7.942  0.00  0.00    +0.000 C 
ATOM     15  C   UNL     1     -21.549 -32.249   8.551  0.00  0.00    +0.000 C 
ATOM     16  C   UNL     1     -19.594 -30.641   8.700  0.00  0.00    +0.000 C 
ENDBRANCH  13  14
ENDBRANCH   4  13
TORSDOF 4
ENDMDL
MODEL 3
REMARK minimizedAffinity -3.87604141
REMARK minimizedRMSD -1
REMARK  Name = 
REMARK  7 active torsions:
REMARK  status: ('A' for Active; 'I' for Inactive)
REMARK    1  A    between atoms: N_2  and  N_3
REMARK    2  A    between atoms: C_6  and  N_7
REMARK    3  A    between atoms: N_7  and  C_8
REMARK    4  A    between atoms: C_8  and  C_9
REMARK    5  A    between atoms: C_8  and  C_10
REMARK    6  A    between atoms: C_12  and  S_14
REMARK    7  A    between atoms: S_14  and  C_15
REMARK                            x       y       z     vdW  Elec       q    Type
REMARK                         _______ _______ _______ _____ _____    ______ ____
ROOT
ATOM      1  N   UNL     1      11.513  24.078  22.360  0.00  0.00    +0.000 N 
ATOM      2  C   UNL     1      11.460  25.423  22.657  0.00  0.00    +0.000 A 
ATOM      3  N   UNL     1      12.285  26.224  22.011  0.00  0.00    +0.000 NA
ATOM      4  C   UNL     1      12.166  27.527  22.220  0.00  0.00    +0.000 A 
ATOM      5  N   UNL     1      11.317  28.038  23.099  0.00  0.00    +0.000 NA
ATOM      6  C   UNL     1      10.562  27.149  23.749  0.00  0.00    +0.000 A 
ATOM      7  N   UNL     1      10.547  25.828  23.538  0.00  0.00    +0.000 NA
ATOM      8  H   UNL     1      10.643  23.590  22.372  0.00  0.00    +0.000 HD
ENDROOT
BRANCH   1  10
ATOM      9  N   UNL     1      13.661  23.071  21.613  0.00  0.00    +0.000 NA
ATOM     10  N   UNL     1      12.707  23.480  22.022  0.00  0.00    +0.000 NA
ENDBRANCH   1  10
BRANCH   6  11
ATOM     11  S   UNL     1       9.495  27.860  25.006  0.00  0.00    +0.000 S 
ATOM     12  C   UNL     1      10.160  29.528  25.228  0.00  0.00    +0.000 C 
ENDBRANCH   6  11
BRANCH   4  13
ATOM     13  N   UNL     1      12.921  28.404  21.533  0.00  0.00    +0.000 NA
BRANCH  13  14
ATOM     14  C   UNL     1      12.688  28.577  20.079  0.00  0.00    +0.000 C 
ATOM     15  C   UNL     1      11.747  29.746  19.762  0.00  0.00    +0.000 C 
ATOM     16  C   UNL     1      13.987  28.665  19.270  0.00  0.00    +0.000 C 
ENDBRANCH  13  14
ENDBRANCH   4  13
TORSDOF 4
ENDMDL
MODEL 4
REMARK minimizedAffinity -3.82485485
REMARK minimizedRMSD -1
REMARK  Name = 
REMARK  7 active torsions:
REMARK  status: ('A' for Active; 'I' for Inactive)
REMARK    1  A    between atoms: N_2  and  N_3
REMARK    2  A    between atoms: C_6  and  N_7
REMARK    3  A    between atoms: N_7  and  C_8
REMARK    4  A    between atoms: C_8  and  C_9
REMARK    5  A    between atoms: C_8  and  C_10
REMARK    6  A    between atoms: C_12  and  S_14
REMARK    7  A    between atoms: S_14  and  C_15
REMARK                            x       y       z     vdW  Elec       q    Type
REMARK                         _______ _______ _______ _____ _____    ______ ____
ROOT
ATOM      1  N   UNL     1     -27.821 -11.669   2.323  0.00  0.00    +0.000 N 
ATOM      2  C   UNL     1     -28.385 -11.001   1.256  0.00  0.00    +0.000 A 
ATOM      3  N   UNL     1     -28.731  -9.741   1.438  0.00  0.00    +0.000 NA
ATOM      4  C   UNL     1     -29.178  -9.070   0.387  0.00  0.00    +0.000 A 
ATOM      5  N   UNL     1     -29.362  -9.630  -0.798  0.00  0.00    +0.000 NA
ATOM      6  C   UNL     1     -29.039 -10.924  -0.876  0.00  0.00    +0.000 A 
ATOM      7  N   UNL     1     -28.496 -11.658   0.103  0.00  0.00    +0.000 NA
ATOM      8  H   UNL     1     -27.104 -12.326   2.102  0.00  0.00    +0.000 HD
ENDROOT
BRANCH   1  10
ATOM      9  N   UNL     1     -28.396 -11.081   4.671  0.00  0.00    +0.000 NA
ATOM     10  N   UNL     1     -28.213 -11.387   3.613  0.00  0.00    +0.000 NA
ENDBRANCH   1  10
BRANCH   6  11
ATOM     11  S   UNL     1     -29.393 -11.683  -2.463  0.00  0.00    +0.000 S 
ATOM     12  C   UNL     1     -28.332 -13.149  -2.474  0.00  0.00    +0.000 C 
ENDBRANCH   6  11
BRANCH   4  13
ATOM     13  N   UNL     1     -29.471  -7.759   0.485  0.00  0.00    +0.000 NA
BRANCH  13  14
ATOM     14  C   UNL     1     -28.367  -6.772   0.533  0.00  0.00    +0.000 C 
ATOM     15  C   UNL     1     -28.333  -5.856  -0.697  0.00  0.00    +0.000 C 
ATOM     16  C   UNL     1     -28.342  -5.964   1.836  0.00  0.00    +0.000 C 
ENDBRANCH  13  14
ENDBRANCH   4  13
TORSDOF 4
ENDMDL
MODEL 5
REMARK minimizedAffinity -3.80558896
REMARK minimizedRMSD -1
REMARK  Name = 
REMARK  7 active torsions:
REMARK  status: ('A' for Active; 'I' for Inactive)
REMARK    1  A    between atoms: N_2  and  N_3
REMARK    2  A    between atoms: C_6  and  N_7
REMARK    3  A    between atoms: N_7  and  C_8
REMARK    4  A    between atoms: C_8  and  C_9
REMARK    5  A    between atoms: C_8  and  C_10
REMARK    6  A    between atoms: C_12  and  S_14
REMARK    7  A    between atoms: S_14  and  C_15
REMARK                            x       y       z     vdW  Elec       q    Type
REMARK                         _______ _______ _______ _____ _____    ______ ____
ROOT
ATOM      1  N   UNL     1     -21.371 -31.380   7.394  0.00  0.00    +0.000 N 
ATOM      2  C   UNL     1     -22.010 -30.459   6.591  0.00  0.00    +0.000 A 
ATOM      3  N   UNL     1     -21.291 -29.849   5.669  0.00  0.00    +0.000 NA
ATOM      4  C   UNL     1     -21.924 -29.040   4.832  0.00  0.00    +0.000 A 
ATOM      5  N   UNL     1     -23.215 -28.765   4.937  0.00  0.00    +0.000 NA
ATOM      6  C   UNL     1     -23.852 -29.383   5.935  0.00  0.00    +0.000 A 
ATOM      7  N   UNL     1     -23.319 -30.284   6.770  0.00  0.00    +0.000 NA
ATOM      8  H   UNL     1     -21.906 -32.179   7.659  0.00  0.00    +0.000 HD
ENDROOT
BRANCH   1  10
ATOM      9  N   UNL     1     -18.959 -31.198   7.975  0.00  0.00    +0.000 NA
ATOM     10  N   UNL     1     -20.053 -31.203   7.753  0.00  0.00    +0.000 NA
ENDBRANCH   1  10
BRANCH   6  11
ATOM     11  S   UNL     1     -25.575 -28.915   6.118  0.00  0.00    +0.000 S 
ATOM     12  C   UNL     1     -25.627 -28.132   7.748  0.00  0.00    +0.000 C 
ENDBRANCH   6  11
BRANCH   4  13
ATOM     13  N   UNL     1     -21.264 -28.450   3.818  0.00  0.00    +0.000 NA
BRANCH  13  14
ATOM     14  C   UNL     1     -20.332 -29.256   2.994  0.00  0.00    +0.000 C 
ATOM     15  C   UNL     1     -21.006 -30.475   2.352  0.00  0.00    +0.000 C 
ATOM     16  C   UNL     1     -19.573 -28.421   1.956  0.00  0.00    +0.000 C 
ENDBRANCH  13  14
ENDBRANCH   4  13
TORSDOF 4
ENDMDL
MODEL 6
REMARK minimizedAffinity -3.79296947
REMARK minimizedRMSD -1
REMARK  Name = 
REMARK  7 active torsions:
REMARK  status: ('A' for Active; 'I' for Inactive)
REMARK    1  A    between atoms: N_2  and  N_3
REMARK    2  A    between atoms: C_6  and  N_7
REMARK    3  A    between atoms: N_7  and  C_8
REMARK    4  A    between atoms: C_8  and  C_9
REMARK    5  A    between atoms: C_8  and  C_10
REMARK    6  A    between atoms: C_12  and  S_14
REMARK    7  A    between atoms: S_14  and  C_15
REMARK                            x       y       z     vdW  Elec       q    Type
REMARK                         _______ _______ _______ _____ _____    ______ ____
ROOT
ATOM      1  N   UNL     1      -1.654 -11.420   5.171  0.00  0.00    +0.000 N 
ATOM      2  C   UNL     1      -1.183 -10.412   4.355  0.00  0.00    +0.000 A 
ATOM      3  N   UNL     1      -1.168 -10.636   3.055  0.00  0.00    +0.000 NA
ATOM      4  C   UNL     1      -0.812  -9.635   2.264  0.00  0.00    +0.000 A 
ATOM      5  N   UNL     1      -0.403  -8.464   2.727  0.00  0.00    +0.000 NA
ATOM      6  C   UNL     1      -0.397  -8.345   4.058  0.00  0.00    +0.000 A 
ATOM      7  N   UNL     1      -0.824  -9.266   4.930  0.00  0.00    +0.000 NA
ATOM      8  H   UNL     1      -2.171 -11.131   5.974  0.00  0.00    +0.000 HD
ENDROOT
BRANCH   1  10
ATOM      9  N   UNL     1      -1.156 -13.805   4.671  0.00  0.00    +0.000 NA
ATOM     10  N   UNL     1      -1.448 -12.741   4.843  0.00  0.00    +0.000 NA
ENDBRANCH   1  10
BRANCH   6  11
ATOM     11  S   UNL     1       0.258  -6.787   4.661  0.00  0.00    +0.000 S 
ATOM     12  C   UNL     1      -0.160  -6.808   6.421  0.00  0.00    +0.000 C 
ENDBRANCH   6  11
BRANCH   4  13
ATOM     13  N   UNL     1      -0.853  -9.771   0.925  0.00  0.00    +0.000 NA
BRANCH  13  14
ATOM     14  C   UNL     1      -2.078 -10.312   0.289  0.00  0.00    +0.000 C 
ATOM     15  C   UNL     1      -3.031  -9.214  -0.198  0.00  0.00    +0.000 C 
ATOM     16  C   UNL     1      -1.778 -11.330  -0.818  0.00  0.00    +0.000 C 
ENDBRANCH  13  14
ENDBRANCH   4  13
TORSDOF 4
ENDMDL
MODEL 7
REMARK minimizedAffinity -3.76700997
REMARK minimizedRMSD -1
REMARK  Name = 
REMARK  7 active torsions:
REMARK  status: ('A' for Active; 'I' for Inactive)
REMARK    1  A    between atoms: N_2  and  N_3
REMARK    2  A    between atoms: C_6  and  N_7
REMARK    3  A    between atoms: N_7  and  C_8
REMARK    4  A    between atoms: C_8  and  C_9
REMARK    5  A    between atoms: C_8  and  C_10
REMARK    6  A    between atoms: C_12  and  S_14
REMARK    7  A    between atoms: S_14  and  C_15
REMARK                            x       y       z     vdW  Elec       q    Type
REMARK                         _______ _______ _______ _____ _____    ______ ____
ROOT
ATOM      1  N   UNL     1      -1.826 -10.494   3.440  0.00  0.00    +0.000 N 
ATOM      2  C   UNL     1      -1.437 -10.425   4.762  0.00  0.00    +0.000 A 
ATOM      3  N   UNL     1      -0.905  -9.294   5.183  0.00  0.00    +0.000 NA
ATOM      4  C   UNL     1      -0.625  -9.191   6.475  0.00  0.00    +0.000 A 
ATOM      5  N   UNL     1      -0.783 -10.193   7.326  0.00  0.00    +0.000 NA
ATOM      6  C   UNL     1      -1.273 -11.318   6.800  0.00  0.00    +0.000 A 
ATOM      7  N   UNL     1      -1.670 -11.486   5.533  0.00  0.00    +0.000 NA
ATOM      8  H   UNL     1      -2.650 -11.023   3.251  0.00  0.00    +0.000 HD
ENDROOT
BRANCH   1  10
ATOM      9  N   UNL     1      -0.581  -9.146   1.760  0.00  0.00    +0.000 NA
ATOM     10  N   UNL     1      -1.123  -9.820   2.467  0.00  0.00    +0.000 NA
ENDBRANCH   1  10
BRANCH   6  11
ATOM     11  S   UNL     1      -1.381 -12.690   7.952  0.00  0.00    +0.000 S 
ATOM     12  C   UNL     1      -1.419 -14.143   6.875  0.00  0.00    +0.000 C 
ENDBRANCH   6  11
BRANCH   4  13
ATOM     13  N   UNL     1      -0.157  -8.036   6.984  0.00  0.00    +0.000 NA
BRANCH  13  14
ATOM     14  C   UNL     1       1.024  -7.395   6.360  0.00  0.00    +0.000 C 
ATOM     15  C   UNL     1       0.938  -5.863   6.355  0.00  0.00    +0.000 C 
ATOM     16  C   UNL     1       2.352  -7.882   6.951  0.00  0.00    +0.000 C 
ENDBRANCH  13  14
ENDBRANCH   4  13
TORSDOF 4
ENDMDL
MODEL 8
REMARK minimizedAffinity -3.76111507
REMARK minimizedRMSD -1
REMARK  Name = 
REMARK  7 active torsions:
REMARK  status: ('A' for Active; 'I' for Inactive)
REMARK    1  A    between atoms: N_2  and  N_3
REMARK    2  A    between atoms: C_6  and  N_7
REMARK    3  A    between atoms: N_7  and  C_8
REMARK    4  A    between atoms: C_8  and  C_9
REMARK    5  A    between atoms: C_8  and  C_10
REMARK    6  A    between atoms: C_12  and  S_14
REMARK    7  A    between atoms: S_14  and  C_15
REMARK                            x       y       z     vdW  Elec       q    Type
REMARK                         _______ _______ _______ _____ _____    ______ ____
ROOT
ATOM      1  N   UNL     1      14.724   7.754  14.103  0.00  0.00    +0.000 N 
ATOM      2  C   UNL     1      15.391   6.787  13.380  0.00  0.00    +0.000 A 
ATOM      3  N   UNL     1      16.168   5.955  14.045  0.00  0.00    +0.000 NA
ATOM      4  C   UNL     1      16.730   4.964  13.368  0.00  0.00    +0.000 A 
ATOM      5  N   UNL     1      16.605   4.830  12.057  0.00  0.00    +0.000 NA
ATOM      6  C   UNL     1      15.846   5.751  11.457  0.00  0.00    +0.000 A 
ATOM      7  N   UNL     1      15.167   6.729  12.068  0.00  0.00    +0.000 NA
ATOM      8  H   UNL     1      13.807   7.985  13.785  0.00  0.00    +0.000 HD
ENDROOT
BRANCH   1  10
ATOM      9  N   UNL     1      15.707   8.646  16.206  0.00  0.00    +0.000 NA
ATOM     10  N   UNL     1      15.298   8.314  15.221  0.00  0.00    +0.000 NA
ENDBRANCH   1  10
BRANCH   6  11
ATOM     11  S   UNL     1      15.776   5.605   9.669  0.00  0.00    +0.000 S 
ATOM     12  C   UNL     1      15.121   3.939   9.408  0.00  0.00    +0.000 C 
ENDBRANCH   6  11
BRANCH   4  13
ATOM     13  N   UNL     1      17.468   4.033  14.001  0.00  0.00    +0.000 NA
BRANCH  13  14
ATOM     14  C   UNL     1      18.360   4.447  15.110  0.00  0.00    +0.000 C 
ATOM     15  C   UNL     1      18.690   3.297  16.070  0.00  0.00    +0.000 C 
ATOM     16  C   UNL     1      19.630   5.157  14.624  0.00  0.00    +0.000 C 
ENDBRANCH  13  14
ENDBRANCH   4  13
TORSDOF 4
ENDMDL
MODEL 9
REMARK minimizedAffinity -3.72478032
REMARK minimizedRMSD -1
REMARK  Name = 
REMARK  7 active torsions:
REMARK  status: ('A' for Active; 'I' for Inactive)
REMARK    1  A    between atoms: N_2  and  N_3
REMARK    2  A    between atoms: C_6  and  N_7
REMARK    3  A    between atoms: N_7  and  C_8
REMARK    4  A    between atoms: C_8  and  C_9
REMARK    5  A    between atoms: C_8  and  C_10
REMARK    6  A    between atoms: C_12  and  S_14
REMARK    7  A    between atoms: S_14  and  C_15
REMARK                            x       y       z     vdW  Elec       q    Type
REMARK                         _______ _______ _______ _____ _____    ______ ____
ROOT
ATOM      1  N   UNL     1      -0.662 -13.959   4.821  0.00  0.00    +0.000 N 
ATOM      2  C   UNL     1      -0.840 -12.684   4.327  0.00  0.00    +0.000 A 
ATOM      3  N   UNL     1      -1.232 -11.751   5.173  0.00  0.00    +0.000 NA
ATOM      4  C   UNL     1      -1.305 -10.506   4.724  0.00  0.00    +0.000 A 
ATOM      5  N   UNL     1      -1.081 -10.185   3.459  0.00  0.00    +0.000 NA
ATOM      6  C   UNL     1      -0.746 -11.203   2.661  0.00  0.00    +0.000 A 
ATOM      7  N   UNL     1      -0.558 -12.472   3.043  0.00  0.00    +0.000 NA
ATOM      8  H   UNL     1       0.090 -14.483   4.427  0.00  0.00    +0.000 HD
ENDROOT
BRANCH   1  10
ATOM      9  N   UNL     1      -1.992 -14.919   6.691  0.00  0.00    +0.000 NA
ATOM     10  N   UNL     1      -1.462 -14.437   5.835  0.00  0.00    +0.000 NA
ENDBRANCH   1  10
BRANCH   6  11
ATOM     11  S   UNL     1      -0.549 -10.757   0.934  0.00  0.00    +0.000 S 
ATOM     12  C   UNL     1      -2.164 -10.076   0.487  0.00  0.00    +0.000 C 
ENDBRANCH   6  11
BRANCH   4  13
ATOM     13  N   UNL     1      -1.619  -9.495   5.555  0.00  0.00    +0.000 NA
BRANCH  13  14
ATOM     14  C   UNL     1      -0.552  -8.572   6.009  0.00  0.00    +0.000 C 
ATOM     15  C   UNL     1      -0.816  -7.114   5.612  0.00  0.00    +0.000 C 
ATOM     16  C   UNL     1      -0.245  -8.701   7.505  0.00  0.00    +0.000 C 
ENDBRANCH  13  14
ENDBRANCH   4  13
TORSDOF 4
ENDMDL
