MODEL 1
REMARK minimizedAffinity -5.95020962
REMARK minimizedRMSD -1
REMARK  Name = 
REMARK  4 active torsions:
REMARK  status: ('A' for Active; 'I' for Inactive)
REMARK    1  A    between atoms: N_2  and  C_3
REMARK    2  A    between atoms: C_6  and  N_7
REMARK    3  A    between atoms: N_7  and  O_8
REMARK    4  A    between atoms: N_7  and  O_9
REMARK                            x       y       z     vdW  Elec       q    Type
REMARK                         _______ _______ _______ _____ _____    ______ ____
ROOT
ATOM      1  C   UNL     1      -1.862 -10.928  -4.747  0.00  0.00    +0.000 C 
ATOM      2  C   UNL     1      -1.773 -11.410  -3.517  0.00  0.00    +0.000 A 
ATOM      3  C   UNL     1      -1.166 -12.604  -3.030  0.00  0.00    +0.000 A 
ATOM      4  C   UNL     1      -1.077 -12.801  -1.701  0.00  0.00    +0.000 A 
ATOM      5  C   UNL     1      -1.620 -11.664  -0.869  0.00  0.00    +0.000 A 
ATOM      6  C   UNL     1      -2.549 -10.703  -1.157  0.00  0.00    +0.000 A 
ATOM      7  C   UNL     1      -2.481 -10.428  -2.652  0.00  0.00    +0.000 A 
ATOM      8  N   UNL     1      -2.842  -9.372  -3.296  0.00  0.00    +0.000 NA
ATOM      9  C   UNL     1      -2.473  -9.566  -4.635  0.00  0.00    +0.000 C 
ATOM     10  O   UNL     1      -2.611  -8.784  -5.526  0.00  0.00    +0.000 OA
ATOM     11  C   UNL     1      -2.720  -9.493  -0.011  0.00  0.00    +0.000 C 
ATOM     12  C   UNL     1      -1.430  -8.639   0.245  0.00  0.00    +0.000 C 
ATOM     13  C   UNL     1      -0.390  -9.301  -0.640  0.00  0.00    +0.000 C 
ATOM     14  C   UNL     1      -0.690 -10.910   0.024  0.00  0.00    +0.000 C 
ENDROOT
BRANCH   1  16
ATOM     15  O   UNL     1      -0.447 -11.298  -6.366  0.00  0.00    +0.000 OA
ATOM     16  N   UNL     1      -1.537 -11.573  -5.862  0.00  0.00    +0.000 NA
ENDBRANCH   1  16
BRANCH   4  17
ATOM     17  N   UNL     1      -0.471 -13.959  -1.156  0.00  0.00    +0.000 N 
BRANCH  17  18
ATOM     18  O   UNL     1       0.223 -14.916  -1.906  0.00  0.00    +0.000 OA
ATOM     19  H   UNL     1       0.293 -14.567  -2.806  0.00  0.00    +0.000 HD
ENDBRANCH  17  18
BRANCH  17  20
ATOM     20  O   UNL     1      -0.700 -14.369   0.143  0.00  0.00    +0.000 OA
ATOM     21  H   UNL     1      -0.220 -15.224   0.146  0.00  0.00    +0.000 HD
ENDBRANCH  17  20
ENDBRANCH   4  17
TORSDOF 4
ENDMDL
MODEL 2
REMARK minimizedAffinity -5.82764721
REMARK minimizedRMSD -1
REMARK  Name = 
REMARK  4 active torsions:
REMARK  status: ('A' for Active; 'I' for Inactive)
REMARK    1  A    between atoms: N_2  and  C_3
REMARK    2  A    between atoms: C_6  and  N_7
REMARK    3  A    between atoms: N_7  and  O_8
REMARK    4  A    between atoms: N_7  and  O_9
REMARK                            x       y       z     vdW  Elec       q    Type
REMARK                         _______ _______ _______ _____ _____    ______ ____
ROOT
ATOM      1  C   UNL     1       9.487  28.519  25.357  0.00  0.00    +0.000 C 
ATOM      2  C   UNL     1      10.241  27.707  24.631  0.00  0.00    +0.000 A 
ATOM      3  C   UNL     1       9.959  26.420  24.087  0.00  0.00    +0.000 A 
ATOM      4  C   UNL     1      10.848  25.852  23.249  0.00  0.00    +0.000 A 
ATOM      5  C   UNL     1      12.057  26.709  22.955  0.00  0.00    +0.000 A 
ATOM      6  C   UNL     1      12.638  27.717  23.672  0.00  0.00    +0.000 A 
ATOM      7  C   UNL     1      11.544  28.405  24.474  0.00  0.00    +0.000 A 
ATOM      8  N   UNL     1      11.523  29.603  24.949  0.00  0.00    +0.000 NA
ATOM      9  C   UNL     1      10.253  29.796  25.511  0.00  0.00    +0.000 C 
ATOM     10  O   UNL     1       9.848  30.800  26.014  0.00  0.00    +0.000 OA
ATOM     11  C   UNL     1      13.861  28.552  22.887  0.00  0.00    +0.000 C 
ATOM     12  C   UNL     1      13.419  29.292  21.576  0.00  0.00    +0.000 C 
ATOM     13  C   UNL     1      11.960  28.903  21.430  0.00  0.00    +0.000 C 
ATOM     14  C   UNL     1      12.294  27.172  21.556  0.00  0.00    +0.000 C 
ENDROOT
BRANCH   1  16
ATOM     15  O   UNL     1       8.290  28.064  27.122  0.00  0.00    +0.000 OA
ATOM     16  N   UNL     1       8.314  28.215  25.900  0.00  0.00    +0.000 NA
ENDBRANCH   1  16
BRANCH   4  17
ATOM     17  N   UNL     1      10.618  24.584  22.662  0.00  0.00    +0.000 N 
BRANCH  17  18
ATOM     18  O   UNL     1      11.541  23.533  22.666  0.00  0.00    +0.000 OA
ATOM     19  H   UNL     1      12.277  23.810  23.231  0.00  0.00    +0.000 HD
ENDBRANCH  17  18
BRANCH  17  20
ATOM     20  O   UNL     1       9.542  24.341  21.830  0.00  0.00    +0.000 OA
ATOM     21  H   UNL     1       9.747  23.427  21.539  0.00  0.00    +0.000 HD
ENDBRANCH  17  20
ENDBRANCH   4  17
TORSDOF 4
ENDMDL
MODEL 3
REMARK minimizedAffinity -5.80895758
REMARK minimizedRMSD -1
REMARK  Name = 
REMARK  4 active torsions:
REMARK  status: ('A' for Active; 'I' for Inactive)
REMARK    1  A    between atoms: N_2  and  C_3
REMARK    2  A    between atoms: C_6  and  N_7
REMARK    3  A    between atoms: N_7  and  O_8
REMARK    4  A    between atoms: N_7  and  O_9
REMARK                            x       y       z     vdW  Elec       q    Type
REMARK                         _______ _______ _______ _____ _____    ______ ____
ROOT
ATOM      1  C   UNL     1     -23.057 -29.999   5.088  0.00  0.00    +0.000 C 
ATOM      2  C   UNL     1     -22.203 -29.989   4.076  0.00  0.00    +0.000 A 
ATOM      3  C   UNL     1     -21.212 -29.033   3.707  0.00  0.00    +0.000 A 
ATOM      4  C   UNL     1     -20.357 -29.324   2.709  0.00  0.00    +0.000 A 
ATOM      5  C   UNL     1     -20.546 -30.700   2.113  0.00  0.00    +0.000 A 
ATOM      6  C   UNL     1     -21.640 -31.518   2.072  0.00  0.00    +0.000 A 
ATOM      7  C   UNL     1     -22.476 -31.235   3.311  0.00  0.00    +0.000 A 
ATOM      8  N   UNL     1     -23.331 -31.999   3.900  0.00  0.00    +0.000 NA
ATOM      9  C   UNL     1     -23.748 -31.326   5.057  0.00  0.00    +0.000 C 
ATOM     10  O   UNL     1     -24.509 -31.739   5.879  0.00  0.00    +0.000 OA
ATOM     11  C   UNL     1     -21.368 -33.064   1.485  0.00  0.00    +0.000 C 
ATOM     12  C   UNL     1     -20.349 -33.917   2.320  0.00  0.00    +0.000 C 
ATOM     13  C   UNL     1     -19.881 -32.951   3.393  0.00  0.00    +0.000 C 
ATOM     14  C   UNL     1     -19.441 -31.698   2.229  0.00  0.00    +0.000 C 
ENDROOT
BRANCH   1  16
ATOM     15  O   UNL     1     -24.425 -28.493   5.874  0.00  0.00    +0.000 OA
ATOM     16  N   UNL     1     -23.297 -28.987   5.914  0.00  0.00    +0.000 NA
ENDBRANCH   1  16
BRANCH   4  17
ATOM     17  N   UNL     1     -19.341 -28.424   2.308  0.00  0.00    +0.000 N 
BRANCH  17  18
ATOM     18  O   UNL     1     -18.273 -28.026   3.121  0.00  0.00    +0.000 OA
ATOM     19  H   UNL     1     -18.317 -28.565   3.923  0.00  0.00    +0.000 HD
ENDBRANCH  17  18
BRANCH  17  20
ATOM     20  O   UNL     1     -19.432 -27.676   1.150  0.00  0.00    +0.000 OA
ATOM     21  H   UNL     1     -18.633 -27.114   1.239  0.00  0.00    +0.000 HD
ENDBRANCH  17  20
ENDBRANCH   4  17
TORSDOF 4
ENDMDL
MODEL 4
REMARK minimizedAffinity -5.71591473
REMARK minimizedRMSD -1
REMARK  Name = 
REMARK  4 active torsions:
REMARK  status: ('A' for Active; 'I' for Inactive)
REMARK    1  A    between atoms: N_2  and  C_3
REMARK    2  A    between atoms: C_6  and  N_7
REMARK    3  A    between atoms: N_7  and  O_8
REMARK    4  A    between atoms: N_7  and  O_9
REMARK                            x       y       z     vdW  Elec       q    Type
REMARK                         _______ _______ _______ _____ _____    ______ ____
ROOT
ATOM      1  C   UNL     1     -15.918   5.904   9.019  0.00  0.00    +0.000 C 
ATOM      2  C   UNL     1     -15.817   4.784   8.320  0.00  0.00    +0.000 A 
ATOM      3  C   UNL     1     -14.912   3.690   8.446  0.00  0.00    +0.000 A 
ATOM      4  C   UNL     1     -15.108   2.585   7.702  0.00  0.00    +0.000 A 
ATOM      5  C   UNL     1     -16.336   2.639   6.825  0.00  0.00    +0.000 A 
ATOM      6  C   UNL     1     -17.027   3.701   6.311  0.00  0.00    +0.000 A 
ATOM      7  C   UNL     1     -16.882   4.862   7.285  0.00  0.00    +0.000 A 
ATOM      8  N   UNL     1     -17.650   5.884   7.441  0.00  0.00    +0.000 NA
ATOM      9  C   UNL     1     -17.149   6.605   8.535  0.00  0.00    +0.000 C 
ATOM     10  O   UNL     1     -17.622   7.596   9.004  0.00  0.00    +0.000 OA
ATOM     11  C   UNL     1     -18.468   3.325   5.543  0.00  0.00    +0.000 C 
ATOM     12  C   UNL     1     -19.545   2.642   6.457  0.00  0.00    +0.000 C 
ATOM     13  C   UNL     1     -18.827   2.484   7.785  0.00  0.00    +0.000 C 
ATOM     14  C   UNL     1     -17.440   1.662   7.062  0.00  0.00    +0.000 C 
ENDROOT
BRANCH   1  16
ATOM     15  O   UNL     1     -15.321   6.145  11.102  0.00  0.00    +0.000 OA
ATOM     16  N   UNL     1     -15.045   6.342   9.918  0.00  0.00    +0.000 NA
ENDBRANCH   1  16
BRANCH   4  17
ATOM     17  N   UNL     1     -14.254   1.460   7.795  0.00  0.00    +0.000 N 
BRANCH  17  18
ATOM     18  O   UNL     1     -14.493   0.352   8.617  0.00  0.00    +0.000 OA
ATOM     19  H   UNL     1     -15.378   0.468   8.991  0.00  0.00    +0.000 HD
ENDBRANCH  17  18
BRANCH  17  20
ATOM     20  O   UNL     1     -12.984   1.450   7.250  0.00  0.00    +0.000 OA
ATOM     21  H   UNL     1     -12.657   0.586   7.579  0.00  0.00    +0.000 HD
ENDBRANCH  17  20
ENDBRANCH   4  17
TORSDOF 4
ENDMDL
MODEL 5
REMARK minimizedAffinity -5.68677664
REMARK minimizedRMSD -1
REMARK  Name = 
REMARK  4 active torsions:
REMARK  status: ('A' for Active; 'I' for Inactive)
REMARK    1  A    between atoms: N_2  and  C_3
REMARK    2  A    between atoms: C_6  and  N_7
REMARK    3  A    between atoms: N_7  and  O_8
REMARK    4  A    between atoms: N_7  and  O_9
REMARK                            x       y       z     vdW  Elec       q    Type
REMARK                         _______ _______ _______ _____ _____    ______ ____
ROOT
ATOM      1  C   UNL     1     -16.255   5.711  10.058  0.00  0.00    +0.000 C 
ATOM      2  C   UNL     1     -15.947   4.850   9.100  0.00  0.00    +0.000 A 
ATOM      3  C   UNL     1     -15.189   3.644   9.144  0.00  0.00    +0.000 A 
ATOM      4  C   UNL     1     -15.141   2.857   8.053  0.00  0.00    +0.000 A 
ATOM      5  C   UNL     1     -15.964   3.360   6.890  0.00  0.00    +0.000 A 
ATOM      6  C   UNL     1     -16.382   4.619   6.564  0.00  0.00    +0.000 A 
ATOM      7  C   UNL     1     -16.559   5.398   7.860  0.00  0.00    +0.000 A 
ATOM      8  N   UNL     1     -17.295   6.431   8.086  0.00  0.00    +0.000 NA
ATOM      9  C   UNL     1     -17.200   6.705   9.458  0.00  0.00    +0.000 C 
ATOM     10  O   UNL     1     -17.776   7.569  10.047  0.00  0.00    +0.000 OA
ATOM     11  C   UNL     1     -17.458   4.717   5.283  0.00  0.00    +0.000 C 
ATOM     12  C   UNL     1     -18.817   3.965   5.504  0.00  0.00    +0.000 C 
ATOM     13  C   UNL     1     -18.637   3.307   6.859  0.00  0.00    +0.000 C 
ATOM     14  C   UNL     1     -17.113   2.537   6.406  0.00  0.00    +0.000 C 
ENDROOT
BRANCH   1  16
ATOM     15  O   UNL     1     -14.824   6.499  11.502  0.00  0.00    +0.000 OA
ATOM     16  N   UNL     1     -15.753   5.720  11.287  0.00  0.00    +0.000 NA
ENDBRANCH   1  16
BRANCH   4  17
ATOM     17  N   UNL     1     -14.419   1.639   8.041  0.00  0.00    +0.000 N 
BRANCH  17  18
ATOM     18  O   UNL     1     -13.425   1.319   7.109  0.00  0.00    +0.000 OA
ATOM     19  H   UNL     1     -13.267   2.117   6.584  0.00  0.00    +0.000 HD
ENDBRANCH  17  18
BRANCH  17  20
ATOM     20  O   UNL     1     -14.789   0.555   8.813  0.00  0.00    +0.000 OA
ATOM     21  H   UNL     1     -14.154  -0.118   8.490  0.00  0.00    +0.000 HD
ENDBRANCH  17  20
ENDBRANCH   4  17
TORSDOF 4
ENDMDL
MODEL 6
REMARK minimizedAffinity -5.6526289
REMARK minimizedRMSD -1
REMARK  Name = 
REMARK  4 active torsions:
REMARK  status: ('A' for Active; 'I' for Inactive)
REMARK    1  A    between atoms: N_2  and  C_3
REMARK    2  A    between atoms: C_6  and  N_7
REMARK    3  A    between atoms: N_7  and  O_8
REMARK    4  A    between atoms: N_7  and  O_9
REMARK                            x       y       z     vdW  Elec       q    Type
REMARK                         _______ _______ _______ _____ _____    ______ ____
ROOT
ATOM      1  C   UNL     1      11.374  28.191  19.224  0.00  0.00    +0.000 C 
ATOM      2  C   UNL     1      11.363  27.600  20.409  0.00  0.00    +0.000 A 
ATOM      3  C   UNL     1      11.046  26.259  20.774  0.00  0.00    +0.000 A 
ATOM      4  C   UNL     1      11.256  25.856  22.042  0.00  0.00    +0.000 A 
ATOM      5  C   UNL     1      11.860  26.913  22.936  0.00  0.00    +0.000 A 
ATOM      6  C   UNL     1      11.838  28.277  22.856  0.00  0.00    +0.000 A 
ATOM      7  C   UNL     1      11.754  28.653  21.384  0.00  0.00    +0.000 A 
ATOM      8  N   UNL     1      12.107  29.752  20.810  0.00  0.00    +0.000 NA
ATOM      9  C   UNL     1      11.934  29.564  19.431  0.00  0.00    +0.000 C 
ATOM     10  O   UNL     1      12.194  30.352  18.573  0.00  0.00    +0.000 OA
ATOM     11  C   UNL     1      12.814  29.084  23.953  0.00  0.00    +0.000 C 
ATOM     12  C   UNL     1      14.347  28.772  23.826  0.00  0.00    +0.000 C 
ATOM     13  C   UNL     1      14.401  27.723  22.731  0.00  0.00    +0.000 C 
ATOM     14  C   UNL     1      13.214  26.679  23.521  0.00  0.00    +0.000 C 
ENDROOT
BRANCH   1  16
ATOM     15  O   UNL     1       9.960  28.269  17.566  0.00  0.00    +0.000 OA
ATOM     16  N   UNL     1      10.903  27.678  18.093  0.00  0.00    +0.000 NA
ENDBRANCH   1  16
BRANCH   4  17
ATOM     17  N   UNL     1      10.978  24.533  22.461  0.00  0.00    +0.000 N 
BRANCH  17  18
ATOM     18  O   UNL     1      11.932  23.512  22.539  0.00  0.00    +0.000 OA
ATOM     19  H   UNL     1      12.793  23.921  22.369  0.00  0.00    +0.000 HD
ENDBRANCH  17  18
BRANCH  17  20
ATOM     20  O   UNL     1       9.688  24.064  22.618  0.00  0.00    +0.000 OA
ATOM     21  H   UNL     1       9.865  23.119  22.811  0.00  0.00    +0.000 HD
ENDBRANCH  17  20
ENDBRANCH   4  17
TORSDOF 4
ENDMDL
MODEL 7
REMARK minimizedAffinity -5.57543564
REMARK minimizedRMSD -1
REMARK  Name = 
REMARK  4 active torsions:
REMARK  status: ('A' for Active; 'I' for Inactive)
REMARK    1  A    between atoms: N_2  and  C_3
REMARK    2  A    between atoms: C_6  and  N_7
REMARK    3  A    between atoms: N_7  and  O_8
REMARK    4  A    between atoms: N_7  and  O_9
REMARK                            x       y       z     vdW  Elec       q    Type
REMARK                         _______ _______ _______ _____ _____    ______ ____
ROOT
ATOM      1  C   UNL     1      14.916  24.594  22.470  0.00  0.00    +0.000 C 
ATOM      2  C   UNL     1      13.738  25.196  22.415  0.00  0.00    +0.000 A 
ATOM      3  C   UNL     1      12.420  24.671  22.555  0.00  0.00    +0.000 A 
ATOM      4  C   UNL     1      11.376  25.520  22.608  0.00  0.00    +0.000 A 
ATOM      5  C   UNL     1      11.761  26.979  22.549  0.00  0.00    +0.000 A 
ATOM      6  C   UNL     1      12.865  27.597  22.031  0.00  0.00    +0.000 A 
ATOM      7  C   UNL     1      14.033  26.629  22.147  0.00  0.00    +0.000 A 
ATOM      8  N   UNL     1      15.296  26.888  22.179  0.00  0.00    +0.000 NA
ATOM      9  C   UNL     1      15.954  25.670  22.407  0.00  0.00    +0.000 C 
ATOM     10  O   UNL     1      17.131  25.518  22.538  0.00  0.00    +0.000 OA
ATOM     11  C   UNL     1      12.998  29.235  22.354  0.00  0.00    +0.000 C 
ATOM     12  C   UNL     1      13.100  29.602  23.876  0.00  0.00    +0.000 C 
ATOM     13  C   UNL     1      12.957  28.260  24.569  0.00  0.00    +0.000 C 
ATOM     14  C   UNL     1      11.461  27.857  23.720  0.00  0.00    +0.000 C 
ENDROOT
BRANCH   1  16
ATOM     15  O   UNL     1      15.205  22.710  21.411  0.00  0.00    +0.000 OA
ATOM     16  N   UNL     1      15.119  23.282  22.498  0.00  0.00    +0.000 NA
ENDBRANCH   1  16
BRANCH   4  17
ATOM     17  N   UNL     1      10.046  25.061  22.764  0.00  0.00    +0.000 N 
BRANCH  17  18
ATOM     18  O   UNL     1       9.202  25.428  23.819  0.00  0.00    +0.000 OA
ATOM     19  H   UNL     1       9.663  26.117  24.318  0.00  0.00    +0.000 HD
ENDBRANCH  17  18
BRANCH  17  20
ATOM     20  O   UNL     1       9.529  24.027  22.008  0.00  0.00    +0.000 OA
ATOM     21  H   UNL     1       8.654  23.914  22.436  0.00  0.00    +0.000 HD
ENDBRANCH  17  20
ENDBRANCH   4  17
TORSDOF 4
ENDMDL
MODEL 8
REMARK minimizedAffinity -5.53450966
REMARK minimizedRMSD -1
REMARK  Name = 
REMARK  4 active torsions:
REMARK  status: ('A' for Active; 'I' for Inactive)
REMARK    1  A    between atoms: N_2  and  C_3
REMARK    2  A    between atoms: C_6  and  N_7
REMARK    3  A    between atoms: N_7  and  O_8
REMARK    4  A    between atoms: N_7  and  O_9
REMARK                            x       y       z     vdW  Elec       q    Type
REMARK                         _______ _______ _______ _____ _____    ______ ____
ROOT
ATOM      1  C   UNL     1      12.010  28.234  19.629  0.00  0.00    +0.000 C 
ATOM      2  C   UNL     1      11.916  27.573  20.773  0.00  0.00    +0.000 A 
ATOM      3  C   UNL     1      10.887  26.722  21.270  0.00  0.00    +0.000 A 
ATOM      4  C   UNL     1      11.093  26.039  22.412  0.00  0.00    +0.000 A 
ATOM      5  C   UNL     1      12.461  26.245  23.018  0.00  0.00    +0.000 A 
ATOM      6  C   UNL     1      13.349  27.277  22.901  0.00  0.00    +0.000 A 
ATOM      7  C   UNL     1      13.156  27.899  21.526  0.00  0.00    +0.000 A 
ATOM      8  N   UNL     1      13.992  28.589  20.828  0.00  0.00    +0.000 NA
ATOM      9  C   UNL     1      13.380  28.837  19.590  0.00  0.00    +0.000 C 
ATOM     10  O   UNL     1      13.865  29.416  18.666  0.00  0.00    +0.000 OA
ATOM     11  C   UNL     1      14.856  27.018  23.585  0.00  0.00    +0.000 C 
ATOM     12  C   UNL     1      15.662  25.819  22.974  0.00  0.00    +0.000 C 
ATOM     13  C   UNL     1      14.697  25.230  21.961  0.00  0.00    +0.000 C 
ATOM     14  C   UNL     1      13.385  25.078  23.135  0.00  0.00    +0.000 C 
ENDROOT
BRANCH   1  16
ATOM     15  O   UNL     1      10.963  27.536  17.848  0.00  0.00    +0.000 OA
ATOM     16  N   UNL     1      11.040  28.386  18.735  0.00  0.00    +0.000 NA
ENDBRANCH   1  16
BRANCH   4  17
ATOM     17  N   UNL     1      10.116  25.165  22.948  0.00  0.00    +0.000 N 
BRANCH  17  18
ATOM     18  O   UNL     1       9.839  23.888  22.447  0.00  0.00    +0.000 OA
ATOM     19  H   UNL     1      10.507  23.701  21.773  0.00  0.00    +0.000 HD
ENDBRANCH  17  18
BRANCH  17  20
ATOM     20  O   UNL     1       9.184  25.582  23.879  0.00  0.00    +0.000 OA
ATOM     21  H   UNL     1       8.628  24.777  23.946  0.00  0.00    +0.000 HD
ENDBRANCH  17  20
ENDBRANCH   4  17
TORSDOF 4
ENDMDL
MODEL 9
REMARK minimizedAffinity -5.50099802
REMARK minimizedRMSD -1
REMARK  Name = 
REMARK  4 active torsions:
REMARK  status: ('A' for Active; 'I' for Inactive)
REMARK    1  A    between atoms: N_2  and  C_3
REMARK    2  A    between atoms: C_6  and  N_7
REMARK    3  A    between atoms: N_7  and  O_8
REMARK    4  A    between atoms: N_7  and  O_9
REMARK                            x       y       z     vdW  Elec       q    Type
REMARK                         _______ _______ _______ _____ _____    ______ ____
ROOT
ATOM      1  C   UNL     1     -20.977 -33.391   1.692  0.00  0.00    +0.000 C 
ATOM      2  C   UNL     1     -21.149 -32.101   1.938  0.00  0.00    +0.000 A 
ATOM      3  C   UNL     1     -22.288 -31.394   2.422  0.00  0.00    +0.000 A 
ATOM      4  C   UNL     1     -22.168 -30.090   2.734  0.00  0.00    +0.000 A 
ATOM      5  C   UNL     1     -20.773 -29.537   2.561  0.00  0.00    +0.000 A 
ATOM      6  C   UNL     1     -19.738 -29.945   1.766  0.00  0.00    +0.000 A 
ATOM      7  C   UNL     1     -19.859 -31.451   1.586  0.00  0.00    +0.000 A 
ATOM      8  N   UNL     1     -18.941 -32.305   1.286  0.00  0.00    +0.000 NA
ATOM      9  C   UNL     1     -19.531 -33.575   1.349  0.00  0.00    +0.000 C 
ATOM     10  O   UNL     1     -18.980 -34.619   1.171  0.00  0.00    +0.000 OA
ATOM     11  C   UNL     1     -18.276 -29.169   2.025  0.00  0.00    +0.000 C 
ATOM     12  C   UNL     1     -17.678 -29.350   3.464  0.00  0.00    +0.000 C 
ATOM     13  C   UNL     1     -18.742 -30.156   4.186  0.00  0.00    +0.000 C 
ATOM     14  C   UNL     1     -20.038 -29.034   3.759  0.00  0.00    +0.000 C 
ENDROOT
BRANCH   1  16
ATOM     15  O   UNL     1     -22.514 -34.499   0.613  0.00  0.00    +0.000 OA
ATOM     16  N   UNL     1     -21.929 -34.316   1.681  0.00  0.00    +0.000 NA
ENDBRANCH   1  16
BRANCH   4  17
ATOM     17  N   UNL     1     -23.257 -29.337   3.236  0.00  0.00    +0.000 N 
BRANCH  17  18
ATOM     18  O   UNL     1     -23.269 -28.696   4.480  0.00  0.00    +0.000 OA
ATOM     19  H   UNL     1     -22.376 -28.777   4.844  0.00  0.00    +0.000 HD
ENDBRANCH  17  18
BRANCH  17  20
ATOM     20  O   UNL     1     -24.502 -29.352   2.637  0.00  0.00    +0.000 OA
ATOM     21  H   UNL     1     -25.016 -28.821   3.282  0.00  0.00    +0.000 HD
ENDBRANCH  17  20
ENDBRANCH   4  17
TORSDOF 4
ENDMDL
